48
ACMCUA
Cu      5.967000   -0.926668    4.078306
S       4.601750   -2.389045    2.630412
C       3.073005   -2.585201    3.521311
C       2.405894   -1.776226    4.377216
C       3.070618   -0.499183    5.012948
N       4.454962   -0.808974    5.415383
C       4.747345   -1.113354    6.609567
C       6.144817   -1.550309    6.774333
N       6.872791   -1.535428    5.670551
C       8.123474   -1.939915    5.580149
C       8.662891   -1.732937    4.216825
N       7.901501   -1.232401    3.379876
C       8.316805   -0.831972    2.031133
C       8.016068    0.653402    1.860536
C       6.814314    1.137705    1.576206
S       5.396555    0.852264    2.608541
C       4.241344    0.096049    1.510592
C       4.264018   -1.290571    1.271463
C       3.901225   -1.084946    7.819790
C       6.766578   -2.027847    7.967058
C       8.073351   -2.449921    7.904360
C       8.765523   -2.448568    6.683930
C      10.137933   -2.096840    3.976239
H       3.234114   -3.479402    4.106010
H       2.349805   -2.789474    2.745602
H       1.541873   -1.420440    3.836261
H       2.084870   -2.394456    5.202501
H       2.504947   -0.197509    5.881975
H       3.078972    0.304380    4.292646
H       9.375350   -1.007836    1.905737
H       7.767841   -1.402854    1.296251
H       8.661697    0.994308    1.065871
H       8.309644    1.120118    2.789345
H       6.930074    2.210475    1.519340
H       6.557733    0.752157    0.600737
H       4.365457    0.578998    0.552620
H       3.259175    0.319261    1.901362
H       3.297364   -1.561131    0.871944
H       5.024214   -1.467788    0.524916
H       4.478830   -1.409618    8.671321
H       3.057491   -1.745112    7.684187
H       3.546785   -0.078462    7.988930
H       6.222388   -2.052198    8.900242
H       8.572192   -2.785415    8.801092
H       9.769172   -2.839527    6.612483
H      10.556816   -2.514855    4.880261
H      10.685704   -1.208050    3.702116
H      10.562783   -2.821941    3.178658
