44
BEJWIW
Cu     10.917324    5.724671    4.067980
S       9.749384    6.054875    6.177858
S       9.197510    7.192624    2.866612
Cl     12.626966    4.605743    3.148784
N      12.237352    9.163580    5.796284
N      11.863680    7.362003    4.587434
N       9.579685    4.330288    3.690682
N       7.701804    3.454307    2.935017
C      12.974888    9.339803    4.654770
C      12.740798    8.186656    3.887348
C      13.321689    8.041230    2.627193
C      14.119981    9.091723    2.183627
C      14.353393   10.215784    2.956394
C      13.789871   10.366343    4.185552
C      11.586123    7.989903    5.716122
C      10.677154    7.468079    6.773198
C       8.236214    6.812804    5.524801
C       8.380076    7.776041    4.367254
C       8.143791    5.842724    2.322575
C       8.480749    4.561259    2.985252
C       8.327459    2.472251    3.640447
C       7.991429    1.130905    3.888416
C       8.859359    0.381531    4.602397
C      10.047987    0.940995    5.118644
C      10.391076    2.277208    4.885638
C       9.517847    3.018028    4.119284
H      12.168636    9.793192    6.573326
H       6.829969    3.372184    2.463661
H      13.174219    7.213154    2.071399
H      14.537091    9.026708    1.261224
H      14.937247   10.929229    2.602610
H      13.968962   11.197840    4.715694
H      11.198175    7.233685    7.573754
H      10.064925    8.184946    7.068196
H       7.637893    6.107913    5.239422
H       7.793835    7.283301    6.258020
H       8.857062    8.559633    4.691110
H       7.480038    8.090846    4.118216
H       7.198610    6.085671    2.511759
H       8.197825    5.757179    1.355281
H       7.172947    0.723711    3.514325
H       8.651448   -0.571441    4.793718
H      10.657061    0.369554    5.648785
H      11.233448    2.655317    5.271487
