48
BIFLUX
Cu      8.512533    0.996978    4.367355
S       6.845714   -0.740142    3.785975
S      10.065444   -0.800872    4.960993
N       9.418763    0.909679    2.640726
N      11.059523    0.441555    1.257322
N       7.616479    0.922331    6.090482
N       5.951566    0.595909    7.472135
C       7.755026   -2.228017    4.158969
C       9.076582   -2.254586    4.607262
C       9.673898   -3.481830    4.868182
C       8.974129   -4.657201    4.663299
C       7.679356   -4.616715    4.213254
C       7.094184   -3.429957    3.975099
C       5.824848   -0.544036    5.288457
C       6.460993    0.315035    6.272601
C       6.817264    1.420820    8.139321
C       7.900443    1.635904    7.267251
C       8.968221    2.414002    7.640245
C       8.922635    2.990933    8.885309
C       7.842803    2.810009    9.741618
C       6.794715    2.028116    9.391389
C      11.124866   -0.697125    3.481276
C      10.515794    0.218880    2.467363
C      10.254247    1.346173    0.607647
C       9.195938    1.615660    1.469210
C       8.163976    2.432980    1.087461
C       8.242721    3.031419   -0.171612
C       9.333155    2.780910   -1.015664
C      10.335622    1.940817   -0.654928
O       8.525393    2.964364    4.377862
H      11.760125    0.215084    1.120733
H       5.427137    0.189780    7.845129
H      10.455989   -3.441344    5.218411
H       9.394480   -5.440360    4.798137
H       7.313180   -5.275884    4.027633
H       6.459726   -3.340128    3.782473
H       5.105497   -0.303648    5.095831
H       5.556159   -1.315808    5.638686
H       9.647018    2.581008    7.162182
H       9.653230    3.517256    9.175999
H       7.933129    3.200956   10.524380
H       6.172804    1.859844    9.841434
H      11.184972   -1.556196    3.029480
H      11.907992   -0.316300    3.799984
H       7.388515    2.656920    1.541007
H       7.521795    3.593168   -0.507832
H       9.302481    3.276868   -1.786168
H      10.907897    1.733324   -1.173267
