58
BONNUN
Cu      7.105454    1.639234    0.952972
Br      9.254185    0.960483    1.826095
S       5.724704    3.528762    2.003150
S       5.282983    1.345986   -0.689125
N       4.643393    0.081243    3.749397
N       6.109800    0.572334    2.239223
N       7.846399    2.770927   -0.416600
N       7.983668    3.774806   -2.378090
C       5.289664   -1.104108    3.436947
C       6.219668   -0.783069    2.482239
C       5.156296    1.069917    2.985631
C       4.763857    2.503436    3.124497
C       4.626036    3.784999    0.624899
C       4.085404    2.521532   -0.069433
C       5.979319    2.290706   -2.030923
C       7.261873    2.949888   -1.596965
C       9.015900    3.563260   -0.399241
C       9.092808    4.164756   -1.649040
C       3.592518    0.195349    4.756179
C       7.622507    4.363077   -3.662605
C       4.126485    0.621289    6.110128
C       5.094602   -0.204401    6.682952
C       5.641483    0.031334    7.950110
C       5.272966    1.207619    8.592367
C       4.250902    2.003634    8.088976
C       3.701853    1.734224    6.821819
C       7.371409    3.347006   -4.738821
C       8.221494    2.257449   -4.947121
C       7.998030    1.409747   -6.023336
C       6.937684    1.604702   -6.925969
C       6.114879    2.691645   -6.665594
C       6.316064    3.593472   -5.624095
H       5.105850   -2.005143    3.870905
H       6.886629   -1.437638    2.030923
H       4.897404    2.833423    4.079205
H       3.765594    2.632747    2.933556
H       3.819682    4.362224    0.902633
H       5.089063    4.337914   -0.104150
H       3.468153    2.798445   -0.815841
H       3.488195    2.049802    0.607541
H       6.164921    1.656429   -2.812047
H       5.325742    2.957411   -2.343373
H       9.677294    3.658758    0.381883
H       9.850501    4.770725   -1.944132
H       2.895729    0.947238    4.461088
H       3.019804   -0.640496    4.860329
H       5.421071   -1.061013    6.231636
H       6.328871   -0.519739    8.418784
H       5.670373    1.558668    9.425567
H       3.829819    2.790284    8.592367
H       2.987289    2.341421    6.353144
H       6.772052    4.925692   -3.541097
H       8.341794    5.007333   -3.975055
H       8.995037    2.096009   -4.339579
H       8.572911    0.566517   -6.144845
H       6.805049    1.044384   -7.689735
H       5.295107    2.830636   -7.273135
H       5.697697    4.387190   -5.485228
