50
BUBCEG
Cu      2.312099    9.481570    4.506534
N       2.758433   10.311477    6.382874
N       1.952833    7.595322    5.259087
N       2.357637   11.392143    3.798555
N       4.422639    9.026764    3.958794
Cl      1.151859    8.992605    2.595381
C       2.108164    6.542347    4.424218
C       1.916754    5.245988    4.794964
C       1.536478    4.979057    6.095094
C       1.385914    6.029186    6.958757
C       1.587502    7.330979    6.533026
C       1.460640    8.484749    7.472986
C       2.725085    9.325267    7.496574
C       3.072244   11.767632    2.738538
C       3.029177   13.042900    2.237975
C       2.225359   13.972050    2.856643
C       1.486825   13.599795    3.940899
C       1.572450   12.296967    4.408113
C       0.834376   11.802826    5.610962
C       1.776190   11.415045    6.727590
C       4.630336    8.388483    2.784577
C       5.869010    8.046117    2.323544
C       6.956347    8.376450    3.091064
C       6.767835    9.042420    4.276506
C       5.494587    9.346098    4.700447
C       5.308224   10.013363    6.057190
C       4.131201   10.924139    6.307553
H       2.368605    6.719352    3.517283
H       2.043658    4.532532    4.165233
H       1.381299    4.077208    6.385476
H       1.137814    5.856191    7.870736
H       1.292529    8.149759    8.356821
H       3.485445    8.744435    7.419302
H       2.767237    9.798446    8.330792
H       3.637848   11.121329    2.309554
H       3.550905   13.283436    1.468829
H       2.185310   14.873380    2.528845
H       0.912336   14.233806    4.376228
H       0.249578   12.496745    5.924119
H       0.315076   11.034509    5.362714
H       2.279388   12.193972    6.975676
H       1.249170   11.123141    7.475100
H       3.867130    8.164638    2.246922
H       5.975665    7.587688    1.486886
H       7.841776    8.143418    2.802146
H       7.524691    9.297189    4.809442
H       6.098335   10.534416    6.218080
H       5.252782    9.307670    6.705629
H       4.115705   11.570054    5.597459
H       4.289692   11.370146    7.142585
