23
CNFBCU
Cu     -4.300354    1.164913    3.453794
C      -4.986956   -0.745913    3.233673
N      -5.330261   -1.798786    2.981626
N      -5.176098    2.109583    4.962530
N      -5.657206    2.217019    2.455127
N      -2.954424    1.271582    1.990240
N      -2.634070    1.085104    4.512579
B      -3.798505    1.023712    6.603638
F      -4.406783   -0.188780    6.347857
F      -3.492012    1.209422    7.916151
O      -2.524853    1.106591    5.869900
O      -4.753476    2.132605    6.248905
C      -6.119673    2.961397    4.637669
C      -6.463680    2.916120    3.173928
C      -5.779826    2.160998    0.993253
C      -4.837631    1.131148    0.379004
C      -3.325682    1.451153    0.537701
C      -1.746984    1.179494    2.365510
C      -1.526941    1.082034    3.834852
C      -6.768980    3.919112    5.619720
C      -7.668842    3.655894    2.692238
C      -0.482941    1.183331    1.484278
C      -0.152410    1.023712    4.469638
