50
CTPOCO
Co      0.000000    0.000000    0.000000
Cl      0.000000    0.000000    2.149742
N       1.911543    0.529919   -0.055296
C       2.412707    1.804737   -0.051415
C       3.879227    1.803368    0.009701
C       4.214705    0.487471    0.063057
C       3.020676   -0.280707   -0.023282
C       1.665069    2.985074   -0.038804
C       2.423661    4.299602   -0.062086
C       2.472956    5.028070    1.243668
C       3.223332    6.254962    1.231057
C       3.814870    6.684923   -0.112532
C       3.754621    5.956455   -1.217476
C       3.037107    4.722716   -1.213595
N      -0.529919    1.911543   -0.055296
N      -1.911543   -0.529919   -0.055296
N       0.529919   -1.911543   -0.055296
C       2.985074   -1.665069   -0.038804
C       0.280707    3.020676   -0.023282
C      -1.804737    2.412707   -0.051415
C      -2.412707   -1.804737   -0.051415
C      -3.020676    0.280707   -0.023282
C       1.804737   -2.412707   -0.051415
C      -0.280707   -3.020676   -0.023282
C       4.299602   -2.423661   -0.062086
C      -0.487471    4.214705    0.063057
C      -1.803368    3.879227    0.009701
C      -2.985074    1.665069   -0.038804
C      -3.879227   -1.803368    0.009701
C      -1.665069   -2.985074   -0.038804
C      -4.214705   -0.487471    0.063057
C       1.803368   -3.879227    0.009701
C       0.487471   -4.214705    0.063057
C       5.028070   -2.472956    1.243668
C       4.722716   -3.037107   -1.213595
C      -4.299602    2.423661   -0.062086
C      -2.423661   -4.299602   -0.062086
C       6.254962   -3.223332    1.231057
C       5.956455   -3.754621   -1.217476
C      -5.028070    2.472956    1.243668
C      -4.722716    3.037107   -1.213595
C      -2.472956   -5.028070    1.243668
C      -3.037107   -4.722716   -1.213595
C       6.684923   -3.814870   -0.112532
C      -6.254962    3.223332    1.231057
C      -5.956455    3.754621   -1.217476
C      -3.223332   -6.254962    1.231057
C      -3.754621   -5.956455   -1.217476
C      -6.684923    3.814870   -0.112532
C      -3.814870   -6.684923   -0.112532
