18
DMAECU
Br      1.443089    1.443089    1.443089
Cu      2.824280    2.824280    2.824280
C       4.374175    3.247861    5.216483
C       4.562298    1.770788    4.894852
C       3.593766   -0.077677    3.613185
C       2.272046    1.115390    5.223765
N       4.018561    4.018561    4.018561
N       3.326752    1.273171    4.215180
N       4.215180    3.326752    1.273171
N       1.273171    4.215180    3.326752
C       5.216483    4.374175    3.247861
C       3.247861    5.216483    4.374175
C       4.894852    4.562298    1.770788
C       3.613185    3.593766   -0.077677
C       5.223765    2.272046    1.115390
C       1.770788    4.894852    4.562298
C      -0.077677    3.613185    3.593766
C       1.115390    5.223765    2.272046
