73
DOXCAU
Co      1.985540    2.373513    3.861067
S      -1.965685    1.759366    1.379323
O       2.260856    3.986572    2.477011
N       0.391212    1.820327    2.872917
N       4.493740    2.099614    5.351082
N       4.014348    2.120879    4.058327
N       2.534673    0.945606    6.419914
N       1.888467    0.686167    5.239121
N       2.728142    3.443593    6.486860
N       1.850896    3.688855    5.465353
C      -0.594106    1.783467    2.250779
C       3.205209    5.076784    2.643222
C       3.401405    5.641028    1.283521
C       2.080273    5.405690    0.612904
C       1.524485    4.192139    1.241968
C       5.834386    2.079766    5.325689
C       6.252099    2.096778    4.021392
C       5.095465    2.108120    3.251510
C       4.950501    2.096778    1.791389
C       5.855331    2.785780    0.996114
C       5.717061    2.807046   -0.388981
C       4.660781    2.135056   -0.977646
C       3.750940    1.427624   -0.215844
C       3.917426    1.414865    1.166942
C       2.190963    0.051037    7.349082
C       1.295345   -0.829354    6.793889
C       1.137491   -0.418221    5.465353
C       0.381407   -1.105806    4.419606
C      -0.809953   -1.760783    4.743949
C      -1.489182   -2.500823    3.784771
C      -1.015501   -2.573125    2.488553
C       0.166384   -1.923819    2.165365
C       0.855552   -1.209298    3.110692
C       2.803339    4.522463    7.283290
C       1.957666    5.489334    6.799661
C       1.367258    4.936431    5.668500
C       0.340590    5.513435    4.785502
C      -0.622156    4.720941    4.181832
C      -1.565608    5.283768    3.340387
C      -1.602243    6.639089    3.134931
C      -0.683885    7.447178    3.768612
C       0.294270    6.902781    4.582355
B       3.517519    2.130803    6.537647
H       3.992964    2.076931    7.334076
H       4.027638    4.743624    2.969874
H       2.820361    5.743103    3.208803
H       4.073001    5.151922    0.832211
H       3.563372    6.579546    1.350467
H       1.507987    6.152818    0.794121
H       2.218680    5.263920   -0.308184
H       0.601855    4.325403    1.454349
H       1.657746    3.442176    0.674079
H       6.402650    2.045741    6.080566
H       7.144283    2.116626    3.701666
H       6.584604    3.259292    1.396637
H       6.339640    3.263545   -0.937247
H       4.540862    2.179005   -1.914893
H       3.026426    0.961201   -0.622138
H       3.312620    0.911581    1.699049
H       2.494076    0.017012    8.247085
H       0.856300   -1.548128    7.219806
H      -1.154716   -1.706911    5.628101
H      -2.275828   -2.971499    4.023700
H      -1.503246   -3.048055    1.830633
H       0.486468   -1.976274    1.274287
H       1.671003   -0.778317    2.876380
H       3.342502    4.603272    8.055480
H       1.818051    6.356967    7.158631
H      -0.620138    3.782424    4.343426
H      -2.201051    4.723776    2.902928
H      -2.235661    7.020450    2.554345
H      -0.717952    8.384278    3.640491
H       0.937588    7.471279    5.007117
