11
FOJBOV01
Fe     -0.701498    1.126080    2.211402
C      -0.185871    2.077400    3.646160
C       1.007632    1.068960    1.618747
C      -0.701498   -0.637160    2.211402
O       0.147949    2.666960    4.568757
O       2.055172    1.073040    1.262268
O      -0.701498   -1.738760    2.211402
C      -1.217125    2.077400    0.776645
C      -2.410629    1.068960    2.804058
O      -1.550945    2.666960   -0.145953
O      -3.458168    1.073040    3.160536
