32
PtN(i-Pr)3(maximum)
Pt         -1.321523 -0.028716  0.211408
N           0.701231  0.003422 -0.096106
C           1.109808 -0.947397 -1.263173
C           1.465519 -0.456165  1.181409
C           1.192370  1.438886 -0.457884
C           1.535792  2.395615  0.695752
C           0.213123  2.201347 -1.366573
H           2.135136  1.264262 -0.992581
H           2.163473 -1.176298 -1.055645
C           1.074775 -0.385756 -2.694768
C           0.293587 -2.250953 -1.300538
H           2.467900 -0.025305  1.055174
C           1.675780 -1.965721  1.384727
C           0.838244  0.062479  2.487644
H           0.425176  1.063583  2.419440
H           1.610865  0.053186  3.269277
H           0.022350 -0.597276  2.794211
H           0.855599 -2.992466 -1.885565
H          -0.666479 -2.070314 -1.790749
H           0.077063 -2.672389 -0.324013
H          -0.258062  1.588710 -2.128434
H           0.762143  3.015280 -1.860625
H          -0.589592  2.632285 -0.762649
H           1.679597  0.508519 -2.854920
H           0.052229 -0.195486 -3.029375
H           1.487835 -1.170133 -3.339851
H           0.644853  2.695360  1.252569
H           1.947708  3.298447  0.229636
H           2.289676  2.025676  1.393050
H           2.203772 -2.471362  0.574206
H           0.731294 -2.480076  1.577948
H           2.294718 -2.069786  2.283674
