44
PtNBz3(maximum)
Pt          0.069998  0.000246 -1.420017
N           0.063282  0.030251  0.616837
C          -0.309383  2.569493  0.924507
C           0.231518  3.289447  1.998556
C           0.660333  4.608393  1.836288
C           0.546073  5.227562  0.591055
C          -0.003124  4.523864 -0.484177
C          -0.430957  3.206580 -0.319298
C          -1.946593 -1.556219  0.967327
C          -2.844454 -1.413165  2.034118
C          -4.200150 -1.708715  1.876668
C          -4.674493 -2.160357  0.644615
C          -3.786537 -2.319627 -0.422599
C          -2.432973 -2.023480 -0.262601
C           2.446746 -0.904354  0.973436
C           2.783986 -1.725293  2.058312
C           3.720620 -2.751566  1.918681
C           4.339126 -2.964965  0.686297
C           4.020589 -2.144638 -0.399277
C           3.084833 -1.120133 -0.257117
H           0.312777  2.815595  2.974804
H           1.078216  5.149270  2.681124
H           0.876937  6.254463  0.459695
H          -0.102928  5.003521 -1.454213
H          -0.847479  2.650489 -1.155137
H          -2.479288 -1.072594  3.001012
H          -4.880633 -1.589542  2.715528
H          -5.728481 -2.393258  0.517682
H          -4.147728 -2.679843 -1.382159
H          -1.740278 -2.134236 -1.092564
H           2.314234 -1.556744  3.025279
H           3.967416 -3.378281  2.771475
H           5.069856 -3.761502  0.573161
H           4.505552 -2.299654 -1.359356
H           2.824552 -0.486991 -1.101296
C          -0.813540  1.159951  1.141238
H          -0.927056  0.987815  2.221578
H          -1.788048  1.017498  0.675344
C           1.469280  0.233919  1.165110
H           1.356946  0.425043  2.242545
H           1.838345  1.147669  0.700398
C          -0.474519 -1.279712  1.178201
H          -0.270181 -1.260147  2.258881
H           0.138122 -2.064613  0.735723
