35
PtP(m-ClPh)3(maximum)
Pt          0.044380  0.147562 -1.993988
C          -0.066344 -1.793852  0.741060
C           0.588392 -2.205040  1.910998
C           0.498381 -3.533226  2.333636
C          -0.241418 -4.462636  1.603383
C          -0.887677 -4.044066  0.438942
C          -0.804255 -2.726538 -0.003923
C           1.430930  0.690433  1.012980
C           1.312466  1.358059  2.240203
C           2.446655  1.883244  2.863859
C           3.705476  1.748539  2.279693
C           3.812972  1.083055  1.057161
C           2.693960  0.559970  0.414729
C          -1.485184  0.743752  0.933009
C          -2.104455  0.207839  2.071350
C          -3.200997  0.856778  2.642966
C          -3.691511  2.040866  2.093437
C          -3.069456  2.565557  0.959308
C          -1.979077  1.930501  0.370089
H           1.172929 -1.497055  2.489101
H           1.011824 -3.848898  3.237541
H          -0.312931 -5.496593  1.923480
Cl         -1.816189 -5.207821 -0.493722
H          -1.289848 -2.422632 -0.925824
H           0.340672  1.476869  2.707389
H           2.349271  2.405568  3.811480
H           4.590228  2.156771  2.756358
Cl          5.392989  0.913387  0.307499
H           2.790823  0.070166 -0.548951
H          -1.741012 -0.716223  2.508395
H          -3.681576  0.434857  3.521215
H          -4.545776  2.548102  2.528870
Cl         -3.683577  4.052306  0.252843
H          -1.522600  2.336242 -0.527184
P          -0.017921 -0.048133  0.132983
