32
PtP(i-Pr)3(maximum)
Pt         -1.303769 -0.343551  0.133390
P           0.794290  0.100229 -0.034248
C           1.198106  1.743308 -0.896175
C           1.713504  0.214417  1.621338
C           1.793943 -1.177984 -1.018719
C           1.784142 -0.955402 -2.540066
C           2.182996 -1.139706  2.177595
H           2.215566  0.004091 -2.838727
H           0.766503 -1.018654 -2.940212
H           2.376684 -1.744268 -3.020140
C           1.311961 -2.610008 -0.724676
H           1.967400 -3.330558 -1.231431
H           0.291374 -2.742783 -1.098304
H           1.301346 -2.851301  0.339376
C           0.241233  2.001778 -2.073239
H           0.551758  2.908541 -2.609040
H          -0.777796  2.146687 -1.700341
H           0.211130  1.178749 -2.789136
C           1.193531  2.968514  0.032117
H           2.221014  1.616714 -1.281018
H           0.203920  3.126400  0.474106
H           1.437687  3.862182 -0.555851
H           1.927950  2.898367  0.839338
H           2.690428 -0.975428  3.136457
H           2.888422 -1.654659  1.519536
H           1.332535 -1.804134  2.364521
C           0.856742  0.920041  2.687768
H           2.606055  0.822701  1.411194
H           0.502504  1.903546  2.374629
H          -0.025973  0.314260  2.917027
H           1.444023  1.046809  3.606788
H           2.829678 -1.062437 -0.665711
