44
PtP(o-MePh)3(maximum)
Pt         -0.347384  1.323272 -1.866687
P          -0.057310 -0.300847 -0.473080
C          -1.515973 -0.630349  0.629274
C          -1.985645 -1.949127  0.752226
C          -3.094441 -2.258542  1.539383
C          -3.753480 -1.240682  2.224208
C          -3.288331  0.069662  2.121121
C          -2.175519  0.408393  1.338369
C           0.290951 -1.931451 -1.292241
C           1.406553 -2.675705 -0.872999
C           1.743067 -3.887676 -1.475464
C           0.955840 -4.377690 -2.514355
C          -0.161464 -3.654403 -2.930094
C          -0.522376 -2.433712 -2.342927
C           1.363738 -0.045296  0.695952
C           1.152393 -0.245093  2.070778
C           2.167280 -0.033099  3.003473
C           3.422363  0.383257  2.566979
C           3.648370  0.570894  1.203937
C           2.646873  0.364290  0.244829
H          -1.476431 -2.749812  0.227482
H          -3.434516 -3.287848  1.612986
H          -4.621498 -1.461488  2.839769
H          -3.798760  0.861558  2.663835
C          -1.726274  1.848512  1.309247
H           2.022438 -2.305425 -0.061011
H           2.613224 -4.439307 -1.130412
H           1.203685 -5.318749 -2.998224
H          -0.779156 -4.043359 -3.735907
C          -1.761137 -1.731069 -2.841311
H           1.972242 -0.194193  4.060133
H           4.224794  0.557549  3.278919
H           4.631703  0.887113  0.864418
H          -2.428362  2.482988  1.859232
H          -1.642606  2.215185  0.276852
H          -0.735001  1.971095  1.761841
H          -2.183097 -2.257192 -3.703324
H          -1.537084 -0.693782 -3.126385
H          -2.534582 -1.677341 -2.065858
C           2.990165  0.567722 -1.210357
H           0.180307 -0.574259  2.420685
H           2.294268  1.274402 -1.683658
H           2.912929 -0.366980 -1.778454
H           4.012310  0.944398 -1.316396
