47
Pt(p-OMePh)3(maximum)
Pt          0.016970 -0.005274 -2.475386
P           0.008622 -0.003108 -0.328348
C          -1.436184 -0.868587  0.412419
C          -1.349519 -1.617966  1.599739
C          -2.473457 -2.231098  2.139628
C          -3.717876 -2.112317  1.502370
C          -3.819753 -1.375103  0.314768
C          -2.683007 -0.767307 -0.218848
C           1.476438 -0.816810  0.426125
C           2.063623 -0.367679  1.622866
C           3.156354 -1.026476  2.172441
C           3.694554 -2.154947  1.535441
C           3.124985 -2.611939  0.339248
C           2.029830 -1.939398 -0.203915
C          -0.025332  1.677890  0.419383
C          -0.669913  1.954224  1.639106
C          -0.642662  3.230668  2.186717
C           0.029268  4.269527  1.524199
C           0.669264  4.012602  0.304318
C           0.632973  2.726553 -0.235798
H          -0.395051 -1.730381  2.104706
H          -2.412223 -2.813914  3.053516
O          -4.756313 -2.751492  2.109108
H          -4.766557 -1.277156 -0.203869
H          -2.758502 -0.215222 -1.151872
H           1.669630  0.508980  2.127374
H           3.616576 -0.681952  3.093358
O           4.766361 -2.726467  2.151450
H           3.527337 -3.475052 -0.178768
H           1.603038 -2.280858 -1.143202
H          -1.203421  1.167309  2.163423
H          -1.140757  3.451217  3.125803
O          -0.004395  5.483112  2.141196
H           1.185635  4.799219 -0.233848
H           1.111492  2.532179 -1.192010
C           5.360498 -3.866723  1.550803
H           6.186659 -4.152644  2.204264
H           5.751390 -3.638033  0.550737
H           4.650212 -4.700753  1.478327
C          -6.039535 -2.673939  1.508044
H          -6.707155 -3.247657  2.153367
H          -6.040893 -3.113669  0.502112
H          -6.395188 -1.636912  1.448717
C           0.651621  6.575648  1.516600
H           0.500018  7.432045  2.176072
H           0.219816  6.795487  0.531494
H           1.727925  6.389797  1.405140
