44
PtP(m-MePh)3(maximum)
Pt         -0.326624 -1.213136 -1.413372
P           0.223916  0.172641  0.127657
C           1.839225 -0.208962  0.935553
C           2.730969  0.790863  1.344995
C           3.928170  0.436518  1.973134
C           4.238450 -0.903407  2.194506
C           3.361313 -1.921433  1.789104
C           2.169201 -1.555890  1.157407
C           0.398502  1.916166 -0.455026
C           0.070890  3.014915  0.354963
C           0.248590  4.309862 -0.131802
C           0.748588  4.517485 -1.418625
C           1.077330  3.435930 -2.245205
C           0.891813  2.139605 -1.747467
C          -0.975830  0.275347  1.526492
C          -0.566250  0.466914  2.852619
C          -1.523659  0.568903  3.865523
C          -2.880825  0.481486  3.563544
C          -3.313078  0.285183  2.242684
C          -2.346807  0.179901  1.238029
H           2.501415  1.837404  1.172173
H           5.175537 -1.166459  2.680919
H           1.483866 -2.325734  0.810878
H          -0.325845  2.861867  1.353505
H           0.878645  5.531865 -1.789023
H           0.488873  0.531482  3.098327
H          -3.616466  0.559002  4.361515
H          -2.653184  0.004538  0.209527
C          -4.786363  0.180997  1.920745
C           3.704870 -3.374874  2.022753
H           1.116279  1.280478 -2.375873
C           1.608293  3.648484 -3.644629
H          -4.950090  0.026211  0.850048
H          -5.324531  1.090972  2.214460
H          -5.253214 -0.655667  2.455226
H          -1.205361  0.713859  4.894742
H           2.922162 -4.035748  1.638257
H           3.829287 -3.588899  3.091747
H           4.645699 -3.646982  1.528396
H           4.621827  1.212560  2.286543
H           1.698413  4.713601 -3.880490
H           0.948505  3.193672 -4.393582
H           2.598014  3.192392 -3.769753
H          -0.008206  5.161354  0.493114
