71
(X195) PtP(m-(t-Bu)Ph)3(minimum) 
Pt  -0.072615   0.035395  -1.968098
P  -0.046668   0.031136   0.178303
C  -1.717153   0.148330   0.953463
C  -2.684478   0.946700   0.319714
C  -3.966682   1.117264   0.854034
C  -4.260334   0.448488   2.056285
C  -3.314838  -0.352828   2.691265
C  -2.038491  -0.509330   2.146036
C   0.707361  -1.482510   0.919211
C   1.408851  -1.454623   2.134328
C   1.927513  -2.640127   2.650404
C   1.758974  -3.848089   1.968516
C   1.069953  -3.903361   0.748704
C   0.554084  -2.699183   0.243667
C   0.906996   1.425524   0.921383
C   0.498281   2.076636   2.090711
C   1.287724   3.103494   2.614126
C   2.470039   3.477213   1.981036
C   2.902734   2.843684   0.801742
C   2.097877   1.820827   0.288132
H  -2.409755   1.418672  -0.617105
C  -5.038781   1.988391   0.174195
H  -5.245808   0.546780   2.503483
H  -1.308738  -1.140186   2.643196
H   1.554788  -0.519830   2.666396
H   2.181677  -4.749358   2.398677
H   0.032211  -2.685035  -0.708848
H  -0.424381   1.794270   2.587428
H   0.974692   3.616237   3.520149
H   3.061318   4.281468   2.410025
C   4.211799   3.290073   0.124792
H   2.369737   1.315110  -0.631595
C   4.515966   2.484604  -1.152662
C   5.389022   3.095763   1.110289
C   4.106569   4.784797  -0.261321
H   4.630841   1.415005  -0.943771
H   5.454714   2.838284  -1.593824
H   3.729841   2.602040  -1.906882
H   3.281112   4.950326  -0.962962
H   5.034036   5.119863  -0.741709
H   3.935767   5.422385   0.612708
H   5.491318   2.042369   1.395249
H   5.255131   3.679161   2.027590
H   6.330357   3.415216   0.646663
H  -3.573208  -0.863556   3.615471
C  -6.277582   1.120259  -0.151422
C  -4.535504   2.617633  -1.138911
C  -5.451246   3.131702   1.131995
H  -5.855465   2.748654   2.075100
H  -6.223537   3.756975   0.667630
H  -4.594069   3.771879   1.370371
H  -7.052078   1.729493  -0.633258
H  -6.715904   0.677468   0.749305
H  -6.014763   0.303111  -0.832748
H  -4.248801   1.856134  -1.872843
H  -3.672886   3.273035  -0.974383
H  -5.332037   3.224622  -1.584176
H   2.474102  -2.625910   3.590039
C   0.875270  -5.206545  -0.048406
C   1.506577  -6.422835   0.655506
C   1.533307  -5.057718  -1.441290
C  -0.637633  -5.481524  -0.222492
H  -1.128745  -5.603160   0.749940
H  -0.792667  -6.401675  -0.799125
H  -1.142161  -4.667165  -0.752559
H   2.588731  -6.305030   0.784154
H   1.342937  -7.322676   0.051899
H   1.061538  -6.602049   1.641253
H   2.610041  -4.874995  -1.348378
H   1.101990  -4.227192  -2.009600
H   1.392967  -5.974303  -2.027395