44
PtPBz3(maximum)
Pt          0.047458  0.016770 -1.753433
P           0.058294  0.036843  0.386831
C          -0.424531  2.790827  0.962436
C           0.267123  3.475844  1.971310
C           0.754752  4.766807  1.757980
C           0.555759  5.394107  0.527529
C          -0.134484  4.722268 -0.484678
C          -0.620446  3.432649 -0.270220
C          -2.073557 -1.758901  0.995539
C          -3.012701 -1.490013  2.000906
C          -4.373932 -1.721811  1.791828
C          -4.816814 -2.228968  0.569678
C          -3.889550 -2.503248 -0.438963
C          -2.530630 -2.270295 -0.228886
C           2.686095 -0.908376  0.985871
C           2.955893 -1.811431  2.023644
C           3.835603 -2.879396  1.834780
C           4.460532 -3.059745  0.600307
C           4.200328 -2.165068 -0.441050
C           3.321071 -1.099224 -0.251091
H           0.417794  2.997754  2.937131
H           1.285262  5.281377  2.554895
H           0.931943  6.399560  0.358894
H          -0.296878  5.204196 -1.445194
H          -1.146804  2.908743 -1.063594
H          -2.675083 -1.104276  2.960774
H          -5.085085 -1.509635  2.585910
H          -5.875096 -2.412552  0.404710
H          -4.224708 -2.901286 -1.393145
H          -1.813447 -2.472908 -1.019791
H           2.480926 -1.671812  2.992680
H           4.034008 -3.565829  2.653808
H           5.147330 -3.888544  0.450960
H           4.684558 -2.296262 -1.405161
H           3.109976 -0.412509 -1.066516
C          -0.945581  1.393730  1.202659
H          -0.971035  1.174374  2.277898
H          -1.965468  1.274957  0.822854
C           1.734369  0.244603  1.200569
H           1.556380  0.398531  2.272904
H           2.140938  1.179473  0.801325
C          -0.603229 -1.502648  1.227456
H          -0.395570 -1.400271  2.300575
H           0.010171 -2.329181  0.854540
