29
PtPEt(i-Pr)2(maximum)
Pt         -0.788954  1.043006 -0.194551
P           0.871801 -0.319814 -0.198300
C           0.440094 -2.113406  0.203291
C           1.718515 -0.553366 -1.852490
C           2.268833  0.119055  0.995321
C           1.731023  0.658384  2.331552
H           1.049322 -0.034812  2.829200
H           1.184189  1.592251  2.164909
H           2.568629  0.858535  3.012382
C           3.253747  1.134248  0.391927
H           2.806743 -0.824804  1.173623
H           3.758613  0.757528 -0.502442
H           4.028880  1.373611  1.130420
H           2.742599  2.068162  0.132247
C           0.142409 -2.358939  1.689654
H          -0.164396 -3.402225  1.835593
H          -0.675542 -1.717464  2.036593
H           1.014054 -2.183392  2.327098
C          -0.743131 -2.588780 -0.656505
H           1.336727 -2.689030 -0.074591
H          -1.644468 -2.018959 -0.407702
H          -0.936193 -3.652143 -0.465971
H          -0.564941 -2.471589 -1.730245
C           1.783018  0.684531 -2.754488
H           1.155770 -1.340098 -2.366185
H           2.720720 -0.961287 -1.662610
H           0.776530  1.074746 -2.933045
H           2.236858  0.425616 -3.718993
H           2.373355  1.490445 -2.310151
