26
PtPEt2(i-Pr)(maximum)
Pt          1.064749  0.093280  0.233469
P          -1.069589  0.219417  0.045992
C          -1.704451  1.069611 -1.494459
H          -2.736222  0.730095 -1.661256
H          -1.762354  2.135362 -1.244004
C          -1.932322  1.186512  1.387894
C          -1.984171 -1.422403  0.087411
C          -1.352199  2.584393  1.632157
C          -0.853299  0.893580 -2.757676
H          -0.795660 -0.151945 -3.074111
H          -1.279873  1.473561 -3.585117
H           0.169700  1.237558 -2.578063
H          -1.856681  0.592779  2.304451
H          -2.998479  1.244624  1.126106
C          -1.672726 -2.278479 -1.149295
H          -1.988620 -1.796463 -2.079758
H          -0.598283 -2.482309 -1.217502
H          -2.199132 -3.238674 -1.080014
C          -1.677599 -2.200456  1.376747
H          -3.052609 -1.157235  0.075924
H          -2.235472 -3.145282  1.382605
H          -0.608306 -2.429198  1.440138
H          -1.957268 -1.646834  2.279006
H          -0.291896  2.517397  1.894410
H          -1.885916  3.080290  2.451426
H          -1.436677  3.226045  0.748070
