34
PtPPh2(i-Pr)(maximum)
Pt         -1.389764 -0.043567  1.444286
P           0.122207  0.164378 -0.067845
C           1.202600  1.652708  0.139850
C           2.429132  1.779199 -0.531903
C           3.201705  2.931788 -0.383583
C           2.761058  3.971382  0.438479
C           1.545455  3.852657  1.114254
C           0.771676  2.699941  0.968539
C           1.316082 -1.244236 -0.159618
C           1.972871 -1.618808 -1.343791
C           2.889760 -2.672236 -1.346068
C           3.165626 -3.364509 -0.166157
C           2.516304 -3.002817  1.016094
C           1.594986 -1.955287  1.018593
H           2.796543  0.972446 -1.159242
H           4.151341  3.014083 -0.905799
H           3.366319  4.866339  0.556310
H           1.200075  4.654217  1.761759
H          -0.168855  2.590817  1.501866
H           1.772519 -1.098707 -2.275469
H           3.385095 -2.951582 -2.272263
H           3.878171 -4.184995 -0.169757
H           2.720339 -3.541803  1.937316
H           1.071281 -1.683668  1.931124
C          -0.552676  0.352135 -1.810683
H           0.321071  0.462844 -2.468673
C          -1.400756  1.628519 -1.921478
C          -1.356766 -0.888211 -2.228320
H          -2.219411 -1.021886 -1.566613
H          -0.759178 -1.804305 -2.191116
H          -1.725126 -0.764409 -3.254395
H          -0.831084  2.525726 -1.660253
H          -2.270286  1.571126 -1.257658
H          -1.760353  1.743812 -2.951484
