27
PtPPhEt2(maximum)
Pt          1.551991 -0.620910  0.572062
P           0.005191  0.829550  0.223643
C          -0.306539  2.018833  1.621212
H           0.635519  2.555275  1.779624
H          -1.048352  2.755126  1.281951
C           0.334499  1.955061 -1.225421
C           1.671239  2.701912 -1.144134
H           1.832796  3.290213 -2.054849
H           1.702829  3.392792 -0.294392
H           2.500618  1.995906 -1.035079
C          -0.762597  1.348570  2.921211
H          -0.018350  0.622399  3.263160
H          -0.902024  2.098981  3.707984
H          -1.713287  0.821889  2.786573
H          -0.501126  2.661463 -1.316041
H           0.312102  1.312425 -2.112269
H          -2.618329  2.060649 -0.489855
C          -2.746565  0.981402 -0.470076
C          -1.664984  0.141371 -0.154867
C          -1.868158 -1.245870 -0.135842
H          -1.028140 -1.890703  0.108232
C          -3.123582 -1.782718 -0.428297
H          -3.266363 -2.859829 -0.409432
C          -4.190064 -0.940006 -0.744819
H          -5.166432 -1.357899 -0.975483
C          -3.999806  0.443948 -0.764840
H          -4.826438  1.105139 -1.011228
