81
R_BINAP
Cl        -1.66970       -3.88836       -0.38441
Pd         0.00036       -2.23993       -0.00029
P         -1.65936       -0.68380        0.20867
C         -2.34999       -0.01886       -1.34723
C         -3.10217        1.17170       -1.38636
C         -3.63137        1.62573       -2.60125
C         -3.41082        0.89559       -3.77973
C         -2.66448       -0.29264       -3.74182
C         -2.13233       -0.75260       -2.52932
H         -1.55988       -1.68508       -2.48145
H         -2.49253       -0.86464       -4.65837
H         -3.81807        1.25672       -4.72904
H         -4.19755        2.56117       -2.62916
H         -3.24916        1.75621       -0.47290
C         -3.08512       -1.32520        1.17851
C         -4.39989       -0.88416        0.94847
C         -5.45001       -1.35963        1.74968
C         -5.19247       -2.27065        2.78393
C         -3.88074       -2.71897        3.00958
C         -2.83175       -2.25736        2.20571
H         -1.81779       -2.64184        2.35047
H         -3.67449       -3.44927        3.79738
H         -6.01364       -2.64359        3.40357
H         -6.47213       -1.02078        1.55529
H         -4.61513       -0.18763        0.13429
C         -1.07870        0.75558        1.22952
C         -0.20203        1.72637        0.72050
C          0.33020        2.74082        1.59117
C          1.20848        3.76324        1.12129
C          1.73025        4.71100        1.98738
C          1.40724        4.68103        3.36989
C          0.55685        3.70266        3.85858
C         -0.00308        2.72087        2.99152
C         -0.88790        1.71752        3.47040
C         -1.41802        0.77051        2.61551
H         -2.10608        0.01892        3.00759
H         -1.15084        1.70354        4.53330
H          0.29892        3.66814        4.92231
H          1.82967        5.43113        4.04511
H          2.40050        5.48586        1.60297
H          1.47300        3.79144        0.06154
C          0.20126        1.72660       -0.72010
C          1.07835        0.75628       -1.22935
C          1.41756        0.77161       -2.61536
C          0.88696        1.71855       -3.47005
C          0.00177        2.72146       -2.99093
C         -0.55860        3.70320       -3.85775
C         -1.40932        4.68114       -3.36882
C         -1.73224        4.71073       -1.98628
C         -1.21006        3.76299       -1.12042
C         -0.33143        2.74098       -1.59055
H         -1.47451        3.79090       -0.06064
H         -2.40278        5.48524       -1.60167
H         -1.83207        5.43124       -4.04386
H         -0.30070        3.66899       -4.92151
H          1.14988        1.70486       -4.53295
H          2.10591        0.02040       -3.00765
P          1.65966       -0.68316       -0.20892
C          2.34999       -0.01842        1.34721
C          2.13295       -0.75275        2.52905
C          2.66500       -0.29291        3.74164
C          3.41059        0.89577        3.77990
C          3.63049        1.62653        2.60168
C          3.10140        1.17261        1.38670
H          3.24785        1.75756        0.47344
H          4.19607        2.56232        2.62988
H          3.81775        1.25679        4.72930
H          2.49355       -0.86536        4.65801
H          1.56111       -1.68560        2.48091
C          3.08576       -1.32360       -1.17889
C          2.83293       -2.25575       -2.20626
C          3.88217       -2.71657       -3.01023
C          5.19365       -2.26747       -2.78452
C          5.45066       -1.35648       -1.75015
C          4.40026       -0.88179       -0.94881
H          4.61510       -0.18528       -0.13452
H          6.47256       -1.01702       -1.55571
H          6.01501       -2.63982       -3.40425
H          3.67641       -3.44686       -3.79817
H          1.81919       -2.64080       -2.35104
Cl         1.67148       -3.88743        0.38398
