70
DPEPhos
P          1.76492       -0.05835        0.03596
C          3.43417       -0.77490        0.34148
C          4.09178       -1.55029       -0.63051
C          5.36364       -2.08340       -0.36490
C          5.98715       -1.84015        0.86640
C          5.33392       -1.06521        1.83871
C          4.05966       -0.54432        1.58647
H          3.54881        0.03918        2.35534
H          5.80726       -0.88143        2.80756
H          6.97801       -2.25654        1.07201
H          5.86369       -2.68746       -1.12787
H          3.62024       -1.74131       -1.59736
C          1.50632       -0.43084       -1.74672
C          1.97007        0.40852       -2.77452
C          1.82594        0.01830       -4.11404
C          1.23057       -1.21200       -4.43259
C          0.77240       -2.05482       -3.40751
C          0.90721       -1.66399       -2.06930
H          0.55481       -2.31252       -1.26060
H          0.30461       -3.01438       -3.64723
H          1.11982       -1.51164       -5.47915
H          2.17809        0.68064       -4.91074
H          2.43846        1.36608       -2.52813
C          2.12557        1.76319        0.13305
C          3.45046        2.24547        0.21544
C          3.72013        3.60671        0.41563
C          2.66708        4.52163        0.55808
C          1.34341        4.07507        0.44902
C          1.08828        2.71935        0.21215
O         -0.23541        2.31780        0.08253
C         -0.65996        2.03065       -1.21273
C         -0.34464        2.84810       -2.30389
C         -0.82869        2.49727       -3.57224
C         -1.61050        1.34423       -3.73930
C         -1.92566        0.54213       -2.63241
C         -1.45894        0.88172       -1.35025
P         -1.77775       -0.09146        0.17881
C         -2.94467       -1.37497       -0.43244
C         -4.28988       -1.06907       -0.70997
C         -5.13585       -2.04768       -1.25341
C         -4.64386       -3.33298       -1.52664
C         -3.30512       -3.64354       -1.23951
C         -2.46042       -2.67145       -0.68823
H         -1.43400       -2.92558       -0.41045
H         -2.92164       -4.65172       -1.42248
H         -5.30627       -4.09593       -1.94676
H         -6.18321       -1.80392       -1.45591
H         -4.68485       -0.07375       -0.48855
C         -2.77042        1.11671        1.16019
C         -3.56907        2.07438        0.49990
C         -4.32006        2.99828        1.24017
C         -4.26975        2.98323        2.64261
C         -3.46405        2.04126        3.29988
C         -2.71355        1.11148        2.56612
H         -2.09863        0.36728        3.07872
H         -3.41301        2.02697        4.39271
H         -4.85289        3.70726        3.22007
H         -4.93870        3.73419        0.71717
H         -3.59268        2.11280       -0.59366
Pd         0.04021       -0.95247        1.31695
Cl        -1.67860       -2.08153        2.52158
Cl         1.60011       -1.96307        2.77347
H         -2.53175       -0.35840       -2.76141
H         -1.97253        1.06364       -4.73220
H         -0.58503        3.12592       -4.43389
H          0.27979        3.73387       -2.16028
H          0.49347        4.75754        0.53505
H          2.87222        5.58037        0.74110
H          4.75830        3.94504        0.47639
H          4.28212        1.54194        0.13796
