75
R_BIPHEMP
P          1.68018       -0.24044        0.00788
C          2.20401        0.43314        1.62466
C          2.99211        1.59659        1.72328
C          3.40139        2.05931        2.98085
C          3.01702        1.36908        4.14215
C          2.23052        0.21074        4.04400
C          1.82464       -0.26181        2.78801
H          1.22811       -1.17531        2.69268
H          1.93258       -0.33010        4.94702
H          3.33336        1.73429        5.12407
H          4.01653        2.96171        3.05435
H          3.27096        2.14468        0.81766
C          3.19323       -0.92822       -0.78081
C          4.48654       -0.54767       -0.38366
C          5.60699       -1.06432       -1.05353
C          5.44180       -1.95586       -2.12283
C          4.15029       -2.34412       -2.51545
C          3.03054       -1.84194       -1.84269
H          2.02663       -2.17983       -2.11745
H          4.01269       -3.05906       -3.33178
H          6.31706       -2.36069       -2.63991
H          6.61051       -0.77308       -0.72877
H          4.62910        0.13315        0.45917
C          1.25965        1.20487       -1.07585
C          1.81514        1.24822       -2.36912
C          1.41789        2.23271       -3.28138
C          0.46994        3.18601       -2.90464
C         -0.08959        3.18520       -1.61322
C          0.29717        2.17959       -0.68920
C         -0.29735        2.18015        0.68694
C          0.08964        3.18645        1.61013
C         -0.46973        3.18835        2.90162
C         -1.41772        2.23542        3.27922
C         -1.81514        1.25023        2.36781
C         -1.25982        1.20579        1.07449
P         -1.68031       -0.24069       -0.00768
C         -2.20354        0.43073       -1.62555
C         -2.99081        1.59457       -1.72619
C         -3.39981        2.05537       -2.98456
C         -3.01596        1.36283       -4.14466
C         -2.23028        0.20412       -4.04450
C         -1.82469       -0.26651       -2.78769
H         -1.22883       -1.18030       -2.69079
H         -1.93275       -0.33852       -4.94657
H         -3.33209        1.72655       -5.12720
H         -4.01431        2.95807       -3.05963
H         -3.26921        2.14446       -0.82153
C         -3.19384       -0.92706        0.78135
C         -4.48680       -0.54542        0.38409
C         -5.60773       -1.06048        1.05438
C         -5.44335       -1.95152        2.12423
C         -4.15221       -2.34084        2.51698
C         -3.03198       -1.84023        1.84383
H         -2.02840       -2.17888        2.11881
H         -4.01526       -3.05538        3.33378
H         -6.31898       -2.35512        2.64165
H         -6.61097       -0.76839        0.72953
H         -4.62875        0.13503       -0.45914
Pd         0.00004       -1.78322        0.00134
Cl        -1.59027       -3.42686       -0.65716
Cl         1.59099       -3.42520        0.66246
H         -2.56028        0.51040        2.66700
H         -1.84942        2.25165        4.28434
H         -0.14891        3.95483        3.61529
C          1.08404        4.26839        1.25746
H          1.76299        4.45330        2.10493
H          0.56686        5.21956        1.03897
H          1.68972        4.01103        0.37695
C         -1.08402        4.26750       -1.26171
H         -0.56696        5.21944       -1.04629
H         -1.68839        4.01197       -0.37977
H         -1.76423        4.45009       -2.10868
H          0.14929        3.95195       -3.61897
H          1.84972        2.24812       -4.28645
H          2.56030        0.50813       -2.66759
