77
xantphos
P          1.76072       -0.54282       -0.23589
C          1.70256       -1.15453        1.50362
C          1.36369       -2.50466        1.71605
C          1.46118       -3.06339        2.99537
C          1.89482       -2.27952        4.07655
C          2.22111       -0.93142        3.87282
C          2.12461       -0.36824        2.59154
H          2.39645        0.67989        2.43784
H          2.55746       -0.31301        4.71091
H          1.97272       -2.71921        5.07552
H          1.19135       -4.11209        3.14952
H          1.03349       -3.12131        0.87372
C          3.23319       -1.48811       -0.80036
C          4.43472       -1.40085       -0.06792
C          5.53941       -2.18110       -0.43546
C          5.44200       -3.07040       -1.51781
C          4.23912       -3.17414       -2.23274
C          3.13609       -2.38278       -1.88085
H          2.20963       -2.43169       -2.45810
H          4.15845       -3.86489       -3.07723
H          6.30309       -3.68348       -1.80109
H          6.47236       -2.10008        0.13065
H          4.50342       -0.73329        0.79701
C          2.25591        1.21796       -0.06518
C          3.42988        1.79331       -0.57879
C          3.58696        3.18687       -0.55411
C          2.57765        4.01921       -0.04128
C          1.38999        3.47645        0.47985
C          1.27727        2.08005        0.45794
O          0.11452        1.47465        0.92306
C         -1.05715        2.15246        0.60524
C         -1.07357        3.55478        0.64351
C         -2.27665        4.18266        0.27946
C         -3.39405        3.42584       -0.10868
C         -3.33118        2.02682       -0.16622
C         -2.14610        1.36206        0.19678
P         -1.81889       -0.42134       -0.13289
C         -1.71914       -1.24388        1.51869
C         -1.46740       -0.54953        2.71522
C         -1.49883       -1.22788        3.94279
C         -1.78132       -2.60014        3.98838
C         -2.01860       -3.30146        2.79564
C         -1.98087       -2.63015        1.56837
H         -2.18787       -3.17969        0.64467
H         -2.23853       -4.37318        2.81949
H         -1.81303       -3.12248        4.94934
H         -1.30175       -0.67588        4.86662
H         -1.25941        0.52209        2.69717
C         -3.40919       -1.16339       -0.68902
C         -3.47104       -1.94935       -1.85317
C         -4.66573       -2.60154       -2.19371
C         -5.80258       -2.46656       -1.38306
C         -5.74163       -1.68850       -0.21537
C         -4.54568       -1.05019        0.13926
H         -4.49043       -0.47665        1.07015
H         -6.62164       -1.58592        0.42685
H         -6.73492       -2.96989       -1.65690
H         -4.70632       -3.20884       -3.10272
H         -2.59386       -2.02449       -2.49992
Pd        -0.06725       -0.35187       -1.63116
Cl        -1.73485        0.44211       -3.13156
Cl         1.59773        0.12302       -3.26532
H         -4.18089        1.45449       -0.54493
H         -4.31519        3.93507       -0.40510
H         -2.34416        5.27356        0.27976
C          0.21703        4.26747        1.07906
C          0.31923        4.19717        2.63081
H         -0.53291        4.72541        3.09023
H          1.25592        4.67064        2.96962
H          0.31121        3.15369        2.98408
C          0.23569        5.74030        0.64312
H         -0.59977        6.29109        1.10352
H          1.16268        6.23082        0.97995
H          0.16265        5.84044       -0.45188
H          2.71763        5.10305       -0.06299
H          4.49507        3.63342       -0.96836
H          4.18964        1.15627       -1.03811
