71
RR_iPr_BPE
C          3.13942       -2.31215       -0.84478
C          4.07283       -3.22104       -0.02349
H          5.10514       -2.82937       -0.02091
H          4.10368       -4.23820       -0.44949
H          3.73452       -3.29643        1.02279
C          3.56652       -2.30755       -2.32230
H          2.97734       -1.60676       -2.93605
H          4.62915       -2.03081       -2.42932
H          3.44689       -3.31426       -2.75642
C          3.07327       -0.90786       -0.19764
P          1.52840        0.11206       -0.50823
C          2.45047        1.71566       -0.82242
C          3.78401        1.47679       -0.08337
C          4.24999        0.06077       -0.46082
H          5.13436       -0.24407        0.12410
H          4.53737        0.04333       -1.52818
H          4.53111        2.23945       -0.36245
H          3.62235        1.53687        1.00717
C          1.70285        3.04062       -0.54747
C          1.50545        3.34383        0.94368
H          1.03212        2.50626        1.48169
H          2.46958        3.54855        1.43874
H          0.87046        4.23682        1.06693
C          2.41688        4.20775       -1.25373
H          3.42398        4.37122       -0.83283
H          1.84939        5.14403       -1.12146
H          2.52634        4.02627       -2.33744
H          0.70090        2.94609       -1.01104
H          2.66114        1.67068       -1.91254
C          0.70097       -0.34189       -2.12594
C         -0.71361        0.25384       -2.16055
P         -1.60135       -0.15792       -0.56646
C         -3.17417        0.85042       -0.52996
C         -4.15493       -0.01845       -1.33990
C         -3.95710       -1.46859       -0.87615
H         -4.52560       -2.17818       -1.49969
H         -4.32908       -1.56444        0.16042
C         -2.44757       -1.81864       -0.88472
C         -2.05885       -2.96542        0.07554
C         -2.93122       -4.20651       -0.18420
H         -2.80675       -4.56862       -1.22187
H         -4.00233       -4.00987       -0.01801
H         -2.63642       -5.02540        0.49261
C         -0.57450       -3.33236       -0.03972
H         -0.32715       -4.17895        0.62143
H         -0.31451       -3.62415       -1.07542
H          0.06348       -2.48360        0.26646
H         -2.24470       -2.60490        1.10558
H         -2.14281       -2.10359       -1.91334
H         -5.19586        0.30794       -1.17712
H         -3.95032        0.07950       -2.42454
C         -3.04085        2.33198       -0.93112
C         -4.42163        3.01067       -0.98670
H         -4.31022        4.08422       -1.21363
H         -5.07364        2.57093       -1.75857
H         -4.93548        2.92544       -0.01281
C         -2.12160        3.08065        0.04631
H         -1.97063        4.12579       -0.27208
H         -1.13463        2.59886        0.13886
H         -2.55891        3.08520        1.05928
H         -2.60611        2.38618       -1.95020
H         -3.45952        0.79989        0.54029
Pd        -0.07958       -0.01261        1.08976
Cl         1.61268        0.04949        2.78494
Cl        -1.94633       -0.22096        2.58524
H         -0.66394        1.35402       -2.23048
H         -1.28710       -0.11052       -3.03081
H          0.65906       -1.44403       -2.17256
H          1.30594        0.00864       -2.97971
H          2.99238       -1.03990        0.89858
H          2.12606       -2.75221       -0.78086
