88
Kamer7
P          1.10505        1.68221       -0.41790
C          0.91074        1.91040        1.40185
C         -0.07973        2.74836        1.94424
C         -0.04836        3.07571        3.30751
C          0.95939        2.56053        4.13701
C          1.93679        1.70785        3.60067
C          1.91432        1.38723        2.23761
H          2.67746        0.72690        1.81293
H          2.71800        1.29003        4.24277
H          0.98021        2.81929        5.19990
H         -0.81369        3.73930        3.72271
H         -0.87722        3.14008        1.30469
C         -0.53998        1.92471       -1.18740
C         -0.79210        2.90580       -2.16812
C         -1.97291        2.86956       -2.92157
C         -2.90952        1.84225       -2.73170
C         -2.68025        0.84162       -1.77368
C         -1.50610        0.91335       -1.00354
O         -1.19029       -0.21537       -0.26026
C         -1.21690       -0.36954        1.11018
C         -2.20985        0.13138        1.98016
C         -2.06767       -0.20040        3.34975
C         -1.01367       -0.98065        3.83105
C         -0.04485       -1.46640        2.94228
C         -0.14733       -1.16979        1.57690
P          1.04457       -1.77845        0.30752
C         -0.03160       -2.97563       -0.60443
C         -1.08431       -3.62392        0.07710
C         -1.89915       -4.54482       -0.59460
C         -1.68146       -4.81737       -1.95341
C         -0.64922       -4.15935       -2.63754
C          0.17340       -3.23904       -1.97159
H          0.98798       -2.74158       -2.50402
H         -0.47664       -4.35779       -3.69973
H         -2.32096       -5.53402       -2.47848
H         -2.71388       -5.03691       -0.05488
H         -1.28159       -3.39944        1.12960
C          2.22801       -2.77314        1.29716
C          1.89841       -4.04663        1.79772
C          2.81460       -4.74345        2.59957
C          4.06020       -4.17368        2.90603
C          4.39658       -2.91007        2.39515
C          3.48727       -2.21516        1.58695
H          3.76342       -1.25593        1.13793
H          5.37719       -2.47338        2.60633
H          4.77480       -4.72136        3.52796
H          2.55525       -5.73665        2.97861
H          0.93445       -4.50071        1.55081
Pd         2.00999       -0.28478       -1.15745
Cl         3.33071       -2.13735       -1.85684
Cl         2.45760        0.90202       -3.17636
H          0.78807       -2.07401        3.30508
H         -0.94672       -1.21281        4.89747
H         -2.83063        0.16654        4.04296
C         -3.32856        1.04817        1.61168
C         -3.47661        2.21920        2.39326
C         -4.52387        3.12184        2.18387
C         -5.46835        2.86314        1.18051
C         -5.34405        1.70367        0.40654
C         -4.28967        0.78746        0.60357
C         -4.26834       -0.40424       -0.29928
C         -5.03998       -1.54503       -0.01800
C         -5.12978       -2.59145       -0.94833
C         -4.45782       -2.49768       -2.17557
C         -3.68023       -1.36755       -2.46386
C         -3.57772       -0.32010       -1.53234
H         -3.12004       -1.30363       -3.40158
H         -4.52136       -3.31252       -2.90237
H         -5.72964       -3.47659       -0.71553
H         -5.58121       -1.59993        0.93184
H         -6.07627        1.48568       -0.37722
H         -6.29582        3.55603        1.00146
H         -4.60013        4.02207        2.80120
H         -2.73648        2.41855        3.17270
H         -3.82071        1.80022       -3.33599
H         -2.14727        3.63273       -3.68506
H         -0.03513        3.66526       -2.37672
C          2.09884        3.20481       -0.72950
C          1.54094        4.47513       -0.47775
C          2.32854        5.62823       -0.59711
C          3.68557        5.52011       -0.93990
C          4.24939        4.25535       -1.16240
C          3.46179        3.09932       -1.06154
H          3.89529        2.11858       -1.26990
H          5.30638        4.16197       -1.42827
H          4.30134        6.42025       -1.02942
H          1.88073        6.60975       -0.41411
H          0.49269        4.57046       -0.17984
