77
R_MeO_BIPHEP
Pd        -0.00063       -2.01033        0.00108
P          1.68221       -0.46809       -0.05935
C          2.25757        0.22977        1.53052
C          1.98725       -0.49074        2.70914
C          2.44950       -0.00753        3.94131
C          3.18444        1.18705        3.99992
C          3.45784        1.90327        2.82297
C          2.99118        1.43161        1.58843
H          3.17546        2.00477        0.67486
H          4.03654        2.83157        2.86528
H          3.54759        1.55940        4.96295
H          2.23696       -0.56855        4.85608
H          1.43172       -1.43244        2.64425
C          3.17659       -1.14248       -0.89284
C          4.47387       -0.72639       -0.54702
C          5.58133       -1.22337       -1.25215
C          5.39848       -2.12957       -2.30639
C          4.10320       -2.55118       -2.64871
C          2.99643       -2.06894       -1.94016
H          1.99135       -2.43083       -2.17663
H          3.95313       -3.27602       -3.45408
H          6.26381       -2.51875       -2.85156
H          6.58872       -0.90425       -0.96797
H          4.62859       -0.02992        0.28100
C          1.22967        0.97265       -1.12941
C          0.28771        1.93098       -0.68979
C         -0.11416        2.95517       -1.58710
C          0.39304        3.00938       -2.89583
C          1.31986        2.04577       -3.31166
C          1.74108        1.03533       -2.44271
H          2.46945        0.29741       -2.78296
H          1.71792        2.08525       -4.32997
H          0.07018        3.78695       -3.59021
O         -1.02902        3.84336       -1.09019
C         -1.45554        4.90409       -1.94449
H         -1.96190        4.51328       -2.84626
H         -2.16725        5.49316       -1.34968
H         -0.60594        5.54496       -2.24429
C         -0.28615        1.93163        0.68825
C         -1.22897        0.97443        1.12846
C         -1.74022        1.03834        2.44179
C         -1.31790        2.04883        3.31016
C         -0.39019        3.01132        2.89373
C          0.11676        2.95597        1.58496
O          1.03229        3.84308        1.08742
C          1.45972        4.90401        1.94102
H          1.96593        4.51334        2.84294
H          0.61064        5.54568        2.24056
H          2.17179        5.49218        1.34576
H         -0.06646        3.78890        3.58769
H         -1.71581        2.08921        4.32850
H         -2.46928        0.30133        2.78251
P         -1.68248       -0.46702        0.05981
C         -2.25731        0.22917       -1.53102
C         -2.98869        1.43226       -1.59063
C         -3.45534        1.90259       -2.82569
C         -3.18431        1.18361       -4.00150
C         -2.45169       -0.01231       -3.94119
C         -1.98931       -0.49410       -2.70851
H         -1.43562       -1.43679       -2.64232
H         -2.24102       -0.57552       -4.85506
H         -3.54746        1.55486       -4.96495
H         -4.03224        2.83195       -2.86928
H         -3.17127        2.00744       -0.67797
C         -3.17761       -1.13926        0.89370
C         -2.99872       -2.06590        1.94107
C         -4.10614       -2.54642        2.64977
C         -5.40082       -2.12289        2.30756
C         -5.58243       -1.21646        1.25330
C         -4.47430       -0.72122        0.54800
H         -4.62802       -0.02450       -0.28000
H         -6.58937       -0.89581        0.96927
H         -6.26667       -2.51074        2.85284
H         -3.95708       -3.27142        3.45520
H         -1.99415       -2.42924        2.17748
Cl        -1.61893       -3.65498       -0.58534
Cl         1.61670       -3.65546        0.58874
