77
SiXantPhos_5
P          1.69667       -0.75229       -0.21227
C          3.10033       -1.85686       -0.65586
C          4.29221       -1.80373        0.09653
C          5.33763       -2.69541       -0.17877
C          5.18960       -3.66145       -1.18724
C          3.99523       -3.73056       -1.92008
C          2.95217       -2.82941       -1.66085
H          2.03423       -2.85613       -2.25287
H          3.87399       -4.48189       -2.70596
H          6.00392       -4.36158       -1.39781
H          6.26317       -2.64085        0.40245
H          4.39802       -1.07522        0.90675
C          1.63928       -1.12452        1.59507
C          2.08206       -0.20665        2.56547
C          2.19386       -0.59847        3.90805
C          1.86115       -1.90499        4.29134
C          1.40538       -2.81937        3.32799
C          1.29428       -2.43225        1.98800
H          0.95198       -3.15246        1.23784
H          1.13114       -3.83680        3.62134
H          1.95189       -2.21136        5.33788
H          2.54813        0.12131        4.65261
H          2.36150        0.80917        2.27350
C          2.29683        0.98141       -0.26327
C          3.54880        1.35998       -0.77232
C          3.89403        2.71657       -0.86652
C          2.98718        3.70088       -0.45244
C          1.71602        3.36331        0.06102
C          1.39471        1.99653        0.12614
O          0.16746        1.53346        0.60738
C         -1.03200        2.17891        0.30177
C         -1.14290        3.58133        0.28705
C         -2.40239        4.12755       -0.03780
C         -3.49909        3.30694       -0.32814
C         -3.35643        1.91245       -0.30227
C         -2.12352        1.32324        0.02659
P         -1.82655       -0.48987       -0.11032
C         -1.72401       -1.10215        1.62988
C         -2.02646       -2.46095        1.86409
C         -2.07526       -2.96172        3.16983
C         -1.80783       -2.11585        4.25782
C         -1.48158       -0.77181        4.02926
C         -1.43885       -0.26394        2.72223
H         -1.19696        0.78845        2.55972
H         -1.25860       -0.10893        4.87060
H         -1.84897       -2.50462        5.27983
H         -2.32724       -4.01343        3.33685
H         -2.25687       -3.12154        1.02244
C         -3.43127       -1.27732       -0.55846
C         -3.52314       -2.14907       -1.65786
C         -4.72524       -2.82503       -1.91673
C         -5.84067       -2.62997       -1.08905
C         -5.75006       -1.76702        0.01541
C         -4.54654       -1.10400        0.28924
H         -4.46843       -0.46476        1.17443
H         -6.61239       -1.61736        0.67222
H         -6.77873       -3.15290       -1.29927
H         -4.78776       -3.49966       -2.77562
H         -2.66292       -2.27414       -2.31940
Pd        -0.11105       -0.63647       -1.62563
Cl        -1.76293        0.07587       -3.18689
Cl         1.55798       -0.40024       -3.31037
H         -4.19838        1.27550       -0.58234
H         -4.46324        3.74705       -0.59774
H         -2.52081        5.21601       -0.07672
Si         0.40886        4.58798        0.63488
C          0.44850        6.18910       -0.35952
H          1.39878        6.72681       -0.20241
H         -0.36616        6.86617       -0.05185
H          0.34069        5.98362       -1.43659
C          0.58601        4.92675        2.48814
H         -0.23578        5.56628        2.85209
H          0.56213        3.98204        3.05617
H          1.54120        5.43377        2.70589
H          3.26701        4.75679       -0.53631
H          4.86650        3.00078       -1.27815
H          4.23759        0.58976       -1.12826
