71
DPBP
Cl        -1.72473       -0.49813       -3.19425
Pd        -0.09775       -0.40357       -1.47098
P          1.70656        0.02339       -0.10449
C          3.01869        1.04895       -0.89440
C          4.12503        1.46472       -0.12133
C          5.11320        2.28085       -0.68733
C          4.98954        2.71408       -2.01738
C          3.87593        2.32704       -2.77682
C          2.89210        1.49459       -2.22261
H          2.03972        1.16944       -2.82336
H          3.76790        2.66773       -3.81067
H          5.75731        3.35833       -2.45672
H          5.97267        2.58743       -0.08344
H          4.20624        1.16738        0.92894
C          2.41051       -1.61604        0.34756
C          3.78491       -1.89151        0.28121
C          4.25913       -3.19512        0.49367
C          3.35804       -4.23997        0.74015
C          1.98149       -3.97879        0.77775
C          1.49867       -2.67001        0.60089
C          0.00380       -2.47341        0.67225
O         -0.76276       -3.21256        0.04798
C         -0.56587       -1.61529        1.79694
C         -0.31269       -2.11307        3.09133
C         -0.97798       -1.59140        4.20709
C         -1.92513       -0.57177        4.03799
C         -2.17125       -0.05725        2.75838
C         -1.47146       -0.54077        1.63580
P         -1.77339        0.16414       -0.03942
C         -1.95421        1.98789        0.05559
C         -1.81454        2.77792        1.21019
C         -1.95546        4.17290        1.12760
C         -2.23134        4.78573       -0.10239
C         -2.35784        3.99947       -1.26074
C         -2.21537        2.60902       -1.18852
H         -2.29410        1.99282       -2.09255
H         -2.56063        4.46964       -2.22746
H         -2.34057        5.87288       -0.16196
H         -1.84155        4.77828        2.03229
H         -1.56774        2.32188        2.17026
C         -3.47225       -0.44202       -0.38774
C         -3.64440       -1.79298       -0.74827
C         -4.93605       -2.29885       -0.93424
C         -6.05615       -1.46703       -0.76977
C         -5.88206       -0.12246       -0.41248
C         -4.59111        0.39399       -0.21984
H         -4.46182        1.44627        0.04838
H         -6.74938        0.53315       -0.28828
H         -7.06306       -1.86639       -0.92529
H         -5.06545       -3.34608       -1.22269
H         -2.77274       -2.43856       -0.88241
H         -2.93206        0.71701        2.62756
H         -2.47424       -0.17653        4.89749
H         -0.77073       -1.99453        5.20277
H          0.40054       -2.93489        3.21450
H          1.26067       -4.78754        0.93034
H          3.72240       -5.26202        0.87868
H          5.33285       -3.39545        0.43349
H          4.48639       -1.09598        0.01766
C          1.57831        0.94239        1.49114
C          1.86192        0.34510        2.73303
C          1.82410        1.10840        3.90880
C          1.51934        2.47708        3.85179
C          1.25058        3.08024        2.61293
C          1.27483        2.31779        1.43808
H          1.07067        2.79602        0.47519
H          1.01625        4.14751        2.55681
H          1.49868        3.07366        4.76887
H          2.04202        0.63173        4.86934
H          2.12288       -0.71510        2.78040
Cl         1.56521       -1.39414       -2.87495
