74
Kamer5	
P         -2.03044        0.03933       -0.21596
C         -2.09724       -0.26838        1.59662
C         -2.23754        0.76840        2.53803
C         -2.27709        0.47077        3.90855
C         -2.18501       -0.85977        4.34326
C         -2.05096       -1.89500        3.40458
C         -1.99892       -1.60536        2.03541
H         -1.88456       -2.40877        1.29967
H         -1.96968       -2.93367        3.73727
H         -2.21189       -1.08991        5.41283
H         -2.38079        1.28229        4.63546
H         -2.31848        1.80717        2.20456
C         -3.75121       -0.22787       -0.80891
C         -4.82116       -0.37657        0.08876
C         -6.13631       -0.46265       -0.39772
C         -6.38560       -0.38833       -1.77513
C         -5.31447       -0.23492       -2.67270
C         -4.00196       -0.16008       -2.19411
H         -3.16581       -0.07401       -2.89441
H         -5.50059       -0.19081       -3.74986
H         -7.41051       -0.45748       -2.15203
H         -6.96463       -0.58860        0.30618
H         -4.63119       -0.43130        1.16427
C         -2.00589        1.89365       -0.33913
C         -3.09609        2.71641       -0.67518
C         -2.91735        4.10905       -0.77268
C         -1.66169        4.69508       -0.56749
C         -0.54255        3.90614       -0.22382
C         -0.77922        2.52185       -0.09706
O          0.20543        1.65161        0.28602
C          1.50876        2.01289        0.08524
C          2.41135        0.96511       -0.01026
C          3.79491        1.31257       -0.06638
C          4.20160        2.63960       -0.04296
C          3.25516        3.70926       -0.02516
C          3.60380        5.08953       -0.04778
C          2.61323        6.06514       -0.05851
C          1.23741        5.72565       -0.08313
C          0.84014        4.38784       -0.06651
C          1.85974        3.38167        0.00816
H          0.49165        6.52375       -0.13091
H          2.89711        7.12170       -0.06986
H          4.66098        5.37208       -0.06182
H          5.26896        2.87977       -0.06389
H          4.54138        0.51746       -0.13172
P          1.73622       -0.75304       -0.16405
C          3.23288       -1.53106       -0.89863
C          4.18669       -2.20235       -0.11559
C          5.37115       -2.67307       -0.70639
C          5.61056       -2.46475       -2.07179
C          4.65848       -1.78704       -2.85297
C          3.47288       -1.32551       -2.27162
H          2.71800       -0.82485       -2.88553
H          4.83313       -1.63223       -3.92182
H          6.53302       -2.83402       -2.53001
H          6.10602       -3.20311       -0.09271
H          4.00747       -2.36290        0.95105
C          1.65181       -1.37652        1.56449
C          1.41799       -2.75394        1.77004
C          1.32744       -3.25696        3.07372
C          1.43303       -2.39318        4.17650
C          1.63963       -1.02145        3.97174
C          1.75737       -0.51235        2.66959
H          1.93448        0.55617        2.51629
H          1.71134       -0.34146        4.82598
H          1.34707       -2.78842        5.19344
H          1.15966       -4.32764        3.22583
H          1.30696       -3.41791        0.90548
Pd        -0.36992       -1.45415       -1.04517
Cl         0.90784       -3.32105       -1.75444
Cl        -2.25242       -2.80362       -1.53753
H         -1.54366        5.77509       -0.69211
H         -3.77038        4.74015       -1.03676
H         -4.07553        2.27393       -0.86994
