78
Kamer6
P         -1.64826       -1.12923       -0.03892
C         -1.44981       -0.87948        1.77654
C         -2.21747        0.14628        2.36631
C         -2.12868        0.38989        3.74362
C         -1.25413       -0.36992        4.53785
C         -0.48730       -1.38837        3.95301
C         -0.59229       -1.65296        2.57905
H          0.00324       -2.45481        2.13476
H          0.19934       -1.98107        4.56471
H         -1.17158       -0.16740        5.60994
H         -2.73644        1.18098        4.19386
H         -2.88203        0.75009        1.73726
C         -3.22886       -2.06180       -0.16981
C         -4.02080       -2.34725        0.95673
C         -5.21061       -3.07943        0.81399
C         -5.60934       -3.53667       -0.44962
C         -4.81640       -3.25953       -1.57521
C         -3.63700       -2.51731       -1.44228
H         -3.03438       -2.28887       -2.32398
H         -5.12518       -3.60457       -2.56619
H         -6.53716       -4.10633       -0.55960
H         -5.82056       -3.29323        1.69680
H         -3.71286       -2.00868        1.94895
C         -0.40784       -2.46226       -0.39583
C         -0.82036       -3.81167       -0.42770
C          0.11714       -4.84875       -0.50515
C          1.48395       -4.55917       -0.49793
C          1.93883       -3.22440       -0.46681
C          0.97500       -2.19547       -0.46908
O          1.41396       -0.87164       -0.55932
C          1.90418       -0.37167        0.64417
C          1.32380        0.82134        1.11075
C          1.72674        1.31045        2.36442
C          2.69362        0.61566        3.10971
C          3.35098       -0.48923        2.55812
C          3.00390       -0.98421        1.27909
C          3.87248       -1.93945        0.54637
C          5.27077       -1.80660        0.70655
C          6.17115       -2.61284        0.00351
C          5.68703       -3.57249       -0.89860
C          4.30744       -3.72335       -1.06679
C          3.38472       -2.92828       -0.35388
H          3.92531       -4.46199       -1.77799
H          6.37962       -4.19165       -1.47594
H          7.24746       -2.47420        0.14105
H          5.65319       -1.02632        1.37084
H          4.15912       -0.97598        3.11244
H          2.97060        0.97420        4.10519
H          1.29478        2.23616        2.75174
P          0.31376        1.76676       -0.12548
C          0.06458        3.37510        0.72420
C          0.62956        4.56460        0.22970
C          0.38943        5.77975        0.88673
C         -0.41707        5.81914        2.03409
C         -0.99247        4.63532        2.52160
C         -0.75819        3.41899        1.86666
H         -1.21841        2.50152        2.24215
H         -1.63380        4.65806        3.40811
H         -0.60650        6.77056        2.54016
H          0.82438        6.70139        0.48871
H          1.23588        4.54472       -0.67884
C          1.63087        2.04001       -1.38646
C          2.92499        2.42327       -0.97825
C          3.94189        2.58601       -1.92864
C          3.67648        2.35452       -3.28808
C          2.39131        1.96453       -3.69338
C          1.36857        1.80551       -2.74731
H          0.36172        1.51638       -3.05996
H          2.17852        1.78097       -4.75061
H          4.47240        2.47686       -4.02916
H          4.94241        2.88880       -1.60485
H          3.13955        2.59017        0.08223
Pd        -1.61035        0.93088       -1.07490
Cl        -1.65389        3.12508       -2.00211
Cl        -3.57674        0.45106       -2.29064
H          2.21854       -5.36942       -0.47725
H         -0.22536       -5.88710       -0.52596
H         -1.88350       -4.05080       -0.36742
