93
R_Tol_BINAP
P         -1.67400       -0.63760        0.09254
C         -2.24369        0.04051       -1.50221
C         -1.90147       -0.65102       -2.67853
C         -2.31406       -0.15868       -3.92328
C         -3.07258        1.02288       -4.02553
C         -3.42429        1.69581       -2.83779
C         -3.01286        1.21808       -1.59005
H         -3.26266        1.77807       -0.68338
H         -4.00471        2.62276       -2.89395
C         -3.47113        1.58217       -5.36920
H         -2.85749        2.46723       -5.61631
H         -4.52520        1.90611       -5.37557
H         -3.33363        0.84169       -6.17249
H         -2.03619       -0.70081       -4.83344
H         -1.31989       -1.57619       -2.60420
C         -3.15904       -1.28268        0.95810
C         -4.45885       -0.86101        0.63364
C         -5.55831       -1.34650        1.35748
C         -5.39120       -2.25676        2.41642
C         -4.08120       -2.67534        2.72989
C         -2.98022       -2.20784        2.00764
H         -1.97778       -2.58264        2.23550
H         -3.92331       -3.39921        3.53657
C         -6.57749       -2.80581        3.17094
H         -6.81551       -3.83027        2.83311
H         -7.47607       -2.18766        3.01731
H         -6.37623       -2.86032        4.25364
H         -6.56651       -1.01556        1.08533
H         -4.62607       -0.16854       -0.19521
C         -1.16095        0.79975        1.15262
C         -0.24974        1.76898        0.70540
C          0.22827        2.77815        1.61268
C          1.13602        3.80100        1.20383
C          1.60738        4.74127        2.10615
C          1.20215        4.70230        3.46672
C          0.31963        3.72423        3.89583
C         -0.19117        2.75110        2.98963
C         -1.11035        1.75055        3.40586
C         -1.59025        0.81171        2.51334
H         -2.30667        0.06183        2.85514
H         -1.44028        1.73274        4.44995
H         -0.00468        3.68490        4.94134
H          1.58512        5.44666        4.17141
H          2.30241        5.51614        1.76863
H          1.46534        3.83392        0.16247
C          0.24972        1.76902       -0.70531
C          1.16098        0.79986       -1.15258
C          1.59017        0.81185       -2.51333
C          1.11014        1.75066       -3.40582
C          0.19092        2.75115       -2.98953
C         -0.32001        3.72423       -3.89571
C         -1.20257        4.70225       -3.46653
C         -1.60769        4.74120       -2.10594
C         -1.13621        3.80097       -1.20365
C         -0.22842        2.77817       -1.61256
H         -1.46546        3.83386       -0.16226
H         -2.30275        5.51602       -1.76837
H         -1.58565        5.44657       -4.17120
H          0.00422        3.68492       -4.94124
H          1.43999        1.73285       -4.44994
H          2.30661        0.06202       -2.85520
P          1.67413       -0.63755       -0.09263
C          2.24363        0.04046        1.50224
C          3.01265        1.21811        1.59025
C          3.42388        1.69581        2.83807
C          3.07207        1.02278        4.02572
C          2.31371       -0.15886        3.92332
C          1.90135       -0.65119        2.67848
H          1.31994       -1.57645        2.60402
H          2.03577       -0.70106        4.83340
C          3.47033        1.58209        5.36948
H          2.85625        2.46682        5.61668
H          4.52424        1.90655        5.37591
H          3.33316        0.84144        6.17267
H          4.00420        2.62282        2.89436
H          3.26246        1.77821        0.68364
C          3.15931       -1.28236       -0.95815
C          4.45904       -0.86054       -0.63353
C          5.55863       -1.34584       -1.35731
C          5.39173       -2.25605       -2.41633
C          4.08181       -2.67477       -2.72995
C          2.98071       -2.20747       -2.00777
H          1.97833       -2.58238       -2.23576
H          3.92409       -3.39861       -3.53669
C          6.57816       -2.80490       -3.17076
H          6.81627       -3.82936       -2.83299
H          7.47665       -2.18666       -3.01700
H          6.37702       -2.85934       -4.25350
H          6.56675       -1.01479       -1.08504
H          4.62610       -0.16812        0.19538
Pd         0.00008       -2.19129       -0.00017
Cl         1.64034       -3.83989        0.50138
Cl        -1.64010       -3.83990       -0.50184
