69
R_BIPHEP
P          1.57276        0.05821       -0.15942
C          2.34683       -1.53099        0.35151
C          3.11670       -1.60661        1.53161
C          3.68247       -2.82653        1.92481
C          3.47007       -3.98075        1.15355
C          2.69827       -3.90819       -0.01564
C          2.13698       -2.68846       -0.42063
H          1.54845       -2.62328       -1.34048
H          2.52712       -4.80406       -0.61970
H          3.90527       -4.93522        1.46560
H          4.28144       -2.87617        2.83951
H          3.25407       -0.71785        2.15569
C          2.90460        1.15683       -0.78246
C          4.24235        1.01884       -0.37168
C          5.21030        1.92876       -0.82292
C          4.84678        2.98086       -1.67705
C          3.51282        3.11370       -2.09499
C          2.54568        2.20052       -1.65681
H          1.51557        2.26837       -2.01934
H          3.22744        3.91565       -2.78209
H          5.60454        3.68689       -2.02999
H          6.25187        1.80836       -0.51006
H          4.53548        0.19471        0.28401
C          1.17497        0.80240        1.49800
C          1.72758        2.04720        1.85526
C          1.51583        2.59575        3.12783
C          0.76273        1.89071        4.07498
C          0.19639        0.65826        3.72637
C          0.36471        0.11141        2.44004
C         -0.29740       -1.18892        2.13336
C          0.05678       -2.31794        2.90207
C         -0.47436       -3.58259        2.62955
C         -1.37899       -3.74042        1.56881
C         -1.76545       -2.62899        0.81275
C         -1.25608       -1.34252        1.10007
P         -1.70163       -0.02189       -0.10214
C         -1.72239        1.64476        0.67687
C         -1.20284        2.72050       -0.06523
C         -1.31338        4.03068        0.42183
C         -1.94121        4.26962        1.65293
C         -2.46377        3.19639        2.39406
C         -2.36401        1.88795        1.90529
H         -2.78291        1.05527        2.47892
H         -2.95314        3.37954        3.35555
H         -2.02663        5.29096        2.03613
H         -0.90682        4.86227       -0.16149
H         -0.71332        2.51861       -1.02436
C         -3.50511       -0.22445       -0.40136
C         -4.06193        0.36748       -1.55168
C         -5.45195        0.37165       -1.73083
C         -6.29311       -0.20866       -0.76921
C         -5.74051       -0.78989        0.38228
C         -4.35078       -0.79612        0.57041
H         -3.93079       -1.24770        1.47362
H         -6.38937       -1.24130        1.13906
H         -7.37746       -0.20883       -0.91636
H         -5.87528        0.82162       -2.63357
H         -3.40564        0.79407       -2.31353
Pd        -0.10569       -0.28682       -1.70310
Cl        -1.67840       -0.92918       -3.34430
Cl         1.68167       -0.69054       -3.22683
H         -2.45927       -2.75896       -0.02320
H         -1.77969       -4.72779        1.32230
H         -0.16340       -4.44489        3.22628
H          0.79854       -2.19341        3.69660
H         -0.42015        0.11230        4.44777
H          0.60345        2.30243        5.07598
H          1.95040        3.56844        3.37609
H          2.34209        2.59074        1.13351
