78
Kamer4
P         -1.81241       -0.68837       -0.23026
C         -3.33701       -1.55296       -0.78924
C         -3.44553       -1.91990       -2.14530
C         -4.63739       -2.47125       -2.62843
C         -5.72502       -2.67158       -1.76068
C         -5.61422       -2.31495       -0.40941
C         -4.42432       -1.74956        0.07769
H         -4.34196       -1.47276        1.13246
H         -6.45347       -2.47731        0.27382
H         -6.65228       -3.11372       -2.13756
H         -4.71140       -2.76188       -3.68055
H         -2.58667       -1.79625       -2.81189
C         -1.93590       -0.60400        1.60451
C         -2.55697        0.47366        2.26543
C         -2.61920        0.49654        3.66636
C         -2.06712       -0.55534        4.41337
C         -1.45515       -1.63340        3.75559
C         -1.38379       -1.66045        2.35678
H         -0.90634       -2.49910        1.84003
H         -1.01723       -2.45410        4.33087
H         -2.11090       -0.53295        5.50671
H         -3.09927        1.33968        4.17273
H         -2.99040        1.29594        1.68862
C         -2.26387        1.02725       -0.76191
C         -3.45212        1.37439       -1.43630
C         -3.67680        2.70348       -1.82826
C         -2.74268        3.70918       -1.54097
C         -1.56461        3.41101       -0.82574
C         -1.36459        2.06022       -0.47712
O         -0.20159        1.68328        0.17169
C          0.91947        2.32572       -0.32461
C          2.05308        1.52671       -0.50998
C          3.21288        2.16327       -1.00167
C          3.18579        3.52646       -1.33091
C          2.01524        4.28302       -1.17799
C          0.85039        3.69864       -0.64218
C         -0.47253        4.35367       -0.46650
C         -0.66152        5.61183        0.04001
C          0.47825        6.50332        0.46966
H          0.66773        7.30044       -0.27460
H          1.41935        5.95599        0.62256
H          0.21920        7.01669        1.41189
C         -2.02953        6.20795        0.26675
H         -2.27737        6.95295       -0.51347
H         -2.83077        5.45531        0.27849
H         -2.04907        6.75006        1.22811
H          1.99424        5.32678       -1.50081
H          4.08548        3.99653       -1.73788
H          4.12693        1.58714       -1.15543
P          1.93757       -0.29882       -0.19580
C          3.60926       -0.77223       -0.79977
C          4.71638       -0.82354        0.06355
C          5.99851       -1.06844       -0.45563
C          6.17911       -1.24732       -1.83430
C          5.07188       -1.18874       -2.69843
C          3.79114       -0.95886       -2.18440
H          2.92418       -0.94592       -2.85143
H          5.20391       -1.34149       -3.77363
H          7.17853       -1.43907       -2.23650
H          6.85536       -1.11696        0.22329
H          4.58144       -0.67615        1.13867
C          2.02228       -0.46276        1.63673
C          1.87299        0.63515        2.50316
C          1.89060        0.44013        3.89277
C          2.07376       -0.84469        4.42314
C          2.23184       -1.94092        3.55911
C          2.19202       -1.75917        2.17141
H          2.28828       -2.61533        1.49410
H          2.37339       -2.94750        3.96448
H          2.08911       -0.99316        5.50734
H          1.76108        1.29826        4.55920
H          1.74310        1.64331        2.10127
Pd         0.19811       -1.80904       -0.72854
Cl         1.97078       -3.35511       -1.05072
Cl        -1.19309       -3.73041       -0.66374
H         -2.91460        4.72943       -1.89280
H         -4.58894        2.95311       -2.37755
H         -4.18920        0.60424       -1.67213
