101
CyXantPhos
P         -1.94019       -0.19751       -0.13885
C         -2.21047        1.62078       -0.39285
C         -3.43866        2.21003       -0.76385
C         -3.52735        3.58049       -1.03993
C         -2.39030        4.39978       -0.97683
C         -1.15467        3.86226       -0.58663
C         -1.11939        2.49317       -0.26964
O          0.08053        1.92524        0.14015
C          0.16695        4.63392       -0.50160
C          0.48115        4.94168        0.99190
C          0.11950        5.95545       -1.28199
H         -4.33365        1.59879       -0.85708
H         -2.47096        5.45829       -1.23659
H         -4.49122        4.00825       -1.33022
H          0.52496        4.01891        1.59116
H         -0.30195        5.59276        1.41462
H         -0.10461        5.79239       -2.34884
H         -0.64659        6.62589       -0.86131
P          1.86954       -0.31983       -0.20127
C          2.08755        1.34431       -0.97483
C          3.14312        1.73671       -1.82292
C          3.24339        3.05961       -2.27638
C          2.30735        4.02824       -1.88206
C          1.23964        3.67954       -1.04019
C          1.15829        2.33755       -0.63478
H          3.88819        1.01070       -2.14412
H          2.41201        5.05641       -2.23772
H          4.06542        3.33792       -2.94190
H          1.45296        5.45616        1.07438
H          1.08261        6.48434       -1.20257
Pd        -0.06036       -1.59228       -0.71937
Cl         1.19330       -3.56495       -0.12437
Cl        -1.50768       -3.15966       -1.77772
C          3.35067       -1.32508       -0.74532
C          3.24068       -1.69449       -2.24367
C          4.76393       -0.85997       -0.33855
H          3.14683       -2.26584       -0.19881
C          4.30263       -2.74097       -2.61547
H          3.36484       -0.80362       -2.88582
H          2.23278       -2.09693       -2.44450
C          5.80236       -1.92257       -0.75011
H          5.03282        0.10835       -0.79534
H          4.81579       -0.71327        0.75250
C          5.71495       -2.26465       -2.24482
H          4.23751       -2.96759       -3.69425
H          4.07355       -3.68016       -2.07726
H          6.81504       -1.56647       -0.48829
H          5.62503       -2.84257       -0.16004
H          6.46285       -3.03553       -2.50268
H          5.96951       -1.36551       -2.84189
C          2.05493        0.06899        1.63180
C          2.28636       -1.21582        2.45056
C          3.05722        1.18048        2.00563
H          1.04973        0.45464        1.88927
C          2.24329       -0.90924        3.95741
H          3.27355       -1.64598        2.19745
H          1.54185       -1.98290        2.17800
C          2.99136        1.46675        3.51659
H          4.08438        0.87659        1.73913
H          2.84522        2.10160        1.43780
C          3.23773        0.19558        4.34356
H          2.44220       -1.83277        4.52918
H          1.22045       -0.58257        4.23152
H          3.72394        2.25113        3.77818
H          1.99003        1.87301        3.76392
H          3.16622        0.41887        5.42292
H          4.27035       -0.16222        4.16127
C         -1.79935       -0.37310        1.73104
C         -2.63339        0.60085        2.58411
C         -1.99173       -1.84509        2.15648
H         -0.73565       -0.12302        1.90605
C         -2.30277        0.40630        4.07524
H         -3.71242        0.42927        2.42365
H         -2.43195        1.64269        2.28100
C         -1.69367       -2.01990        3.65437
H         -3.03115       -2.16275        1.95547
H         -1.33791       -2.50172        1.55472
C         -2.51630       -1.05043        4.51723
H         -2.91570        1.09281        4.68638
H         -1.24453        0.68761        4.24863
H         -1.88890       -3.06587        3.94888
H         -0.61558       -1.84180        3.82943
H         -2.25524       -1.16889        5.58404
H         -3.59144       -1.30214        4.42495
C         -3.54990       -1.00020       -0.66876
C         -4.82557       -0.78999        0.17545
C         -3.80350       -0.79515       -2.18104
H         -3.26788       -2.06535       -0.56529
C         -5.94240       -1.72067       -0.33769
H         -5.18465        0.25382        0.14052
H         -4.63032       -1.01282        1.23624
C         -4.93177       -1.72316       -2.65887
H         -4.07737        0.25245       -2.39859
H         -2.87733       -1.01739       -2.73527
C         -6.21313       -1.52027       -1.83629
H         -6.86145       -1.55091        0.25194
H         -5.63961       -2.77112       -0.16234
H         -5.12736       -1.54758       -3.73169
H         -4.58781       -2.77022       -2.56340
H         -7.00406       -2.21287       -2.17534
H         -6.59917       -0.49404       -2.00269
