68 
title 
Pd -8.1e-05 -0.207489 -0.912372 
H -7.003586 0.476503 -1.826571 
H -6.367649 2.126581 -3.596472 
C -5.956002 0.76344 -1.960366 
C -5.597744 1.689067 -2.953392 
H -5.25084 -0.533605 -0.372534 
C -4.971531 0.196861 -1.13779 
H -4.529315 -5.114852 1.540945 
H -4.277446 1.878352 1.08389 
C -4.105823 -4.160795 1.212469 
H -3.982859 -4.750845 -0.874036 
H -4.088155 -3.298506 3.20441 
C -4.251117 2.047033 -3.124554 
C -3.80361 -3.955906 -0.144122 
C -3.857486 -3.143905 2.145983 
H -3.847737 3.655252 2.754302 
H -3.96689 2.764359 -3.900374 
C -3.619277 0.560339 -1.307032 
C -3.250106 -2.741818 -0.567061 
C -3.314796 -1.919609 1.726196 
C -3.307386 1.918277 1.587916 
H -2.990226 -2.594084 -1.618714 
C -3.259994 1.484674 -2.307844 
C -3.015928 -1.711302 0.367298 
H -3.130455 -1.123968 2.454245 
C -3.045183 2.952455 2.512833 
C -2.306711 0.984781 1.246561 
P -2.301757 -0.136533 -0.232179 
H -2.209199 1.767186 -2.427491 
C -1.761636 3.170775 3.047644 
H -1.562657 4.055833 3.658766 
C -1.093434 1.157945 1.914146 
C -0.733344 2.274281 2.706956 
Cl -0.001188 -2.54103 -1.053418 
Cl 0.000983 2.174085 -1.094296 
O 0.000103 0.387259 1.611182 
C 0.735194 2.273602 2.707023 
C 1.094325 1.156933 1.914246 
H 1.566067 4.054386 3.658909 
C 1.764284 3.169145 3.047806 
H 2.211255 1.765743 -2.426749 
P 2.301671 -0.138669 -0.231961 
C 2.307503 0.982643 1.246777 
C 3.04768 2.949634 2.513117 
H 3.129681 -1.12668 2.45447 
C 3.01431 -1.714101 0.367594 
C 3.261737 1.482039 -2.307167 
H 2.987484 -2.597048 -1.618329 
C 3.309012 1.915211 1.588229 
C 3.313153 -1.922571 1.726474 
C 3.24736 -2.744933 -0.566697 
C 3.619988 0.557011 -1.30662 
H 3.970062 2.761409 -3.899312 
H 3.850863 3.651686 2.754664 
C 3.854697 -3.147358 2.146308 
C 3.799733 -3.959523 -0.143714 
C 4.253489 2.04354 -3.123703 
H 4.08535 -3.302086 3.20472 
H 3.978109 -4.754706 -0.873575 
C 4.101919 -4.164579 1.212857 
H 4.279084 1.874378 1.084298 
H 4.524518 -5.11902 1.54137 
C 4.971836 0.191987 -1.137477 
H 5.250336 -0.538995 -0.37242 
C 5.599718 1.684027 -2.952641 
C 5.95694 0.757712 -1.959886 
H 6.370112 2.120876 -3.595588 
H 7.004204 0.469575 -1.826165 
