80 
title 
Pd 0.246286 1.61691 0.297827 
P 2.351536 0.673054 0.211818 
P -2.02985 1.29182 0.02449 
P -0.364211 -3.348876 -2.703911 
Cl 0.159787 1.660402 2.641285 
Cl 0.476205 2.084025 -2.032978 
C 1.123828 -1.294231 -1.486205 
C 2.311876 -0.625699 -1.105914 
C 3.530644 -1.076342 -1.651118 
C 3.579561 -2.131944 -2.569357 
C 2.395141 -2.788984 -2.924673 
C 1.166308 -2.393711 -2.369666 
H 4.458237 -0.581227 -1.349467 
H 2.414086 -3.637147 -3.616759 
C -2.215977 0.097291 -1.372958 
C -1.248217 -0.896695 -1.65155 
C -1.497173 -1.901503 -2.608392 
C -2.670687 -1.844267 -3.378642 
C -3.610484 -0.828349 -3.164466 
C -3.389397 0.113849 -2.151923 
H -2.846732 -2.618012 -4.133243 
H -4.136432 0.889605 -1.96343 
O -0.072729 -0.887409 -0.913646 
C 2.902859 -0.384353 1.614227 
C 1.917131 -1.122732 2.299844 
C 4.26365 -0.591898 1.911708 
C 2.294167 -2.05179 3.278475 
H 0.859559 -0.956588 2.079095 
C 4.633 -1.518517 2.8981 
H 5.037042 -0.036021 1.373826 
C 3.650074 -2.249519 3.583139 
H 1.519903 -2.61163 3.811901 
H 5.692348 -1.669449 3.127451 
H 3.940947 -2.969687 4.354136 
C 3.726937 1.799069 -0.197366 
C 4.364413 2.495484 0.852908 
C 4.023607 2.133249 -1.53517 
C 5.322295 3.476128 0.564944 
H 4.102247 2.27818 1.893071 
C 4.981069 3.118656 -1.813552 
H 3.490481 1.640263 -2.351898 
C 5.637583 3.785822 -0.76809 
H 5.815554 4.00594 1.385356 
H 5.204943 3.371714 -2.854177 
H 6.383821 4.554488 -0.990481 
C -2.786097 0.398305 1.433327 
C -2.927575 -1.003213 1.423178 
C -3.111124 1.122025 2.600558 
C -3.408829 -1.669079 2.559713 
H -2.661435 -1.584925 0.536221 
C -3.608829 0.452549 3.725032 
H -2.962018 2.204741 2.6316 
C -3.757225 -0.943896 3.708786 
H -3.505841 -2.758643 2.538605 
H -3.86069 1.022857 4.624037 
H -4.134742 -1.464998 4.593959 
C -3.175297 2.665641 -0.376395 
C -2.657873 3.752899 -1.110052 
C -4.530371 2.661281 0.013225 
C -3.496867 4.819813 -1.459406 
H -1.604456 3.747038 -1.41013 
C -5.360703 3.737291 -0.333609 
H -4.931627 1.822579 0.589969 
C -4.846262 4.8157 -1.07062 
H -3.091156 5.660444 -2.030172 
H -6.410882 3.731511 -0.02585 
H -5.496125 5.654722 -1.337663 
H 4.538579 -2.450209 -2.987188 
H -4.522802 -0.780287 -3.76533 
C -0.697966 -4.00201 -0.983432 
C 0.310568 -4.15692 -0.013697 
C -2.0181 -4.381093 -0.662072 
C 0.001241 -4.663979 1.258156 
H 1.33976 -3.859346 -0.236688 
C -2.324959 -4.888999 0.608157 
H -2.816282 -4.262849 -1.403616 
C -1.315475 -5.028971 1.57475 
H 0.795493 -4.759149 2.005124 
H -3.356018 -5.172806 0.842888 
H -1.555151 -5.418795 2.56876 
