101 
title 
Pd -0.152672 -1.023847 -0.057133 
P -2.202055 0.034937 0.26352 
P 2.161776 -0.911998 -0.294499 
Cl -0.398573 -0.462033 -2.374158 
Cl 0.018879 -2.045495 2.071843 
C 1.40736 4.682946 0.271486 
H 0.658058 5.119803 -3.115917 
C 3.789571 2.107102 -2.662987 
H 1.366571 3.85983 1.002571 
H 2.025568 5.784228 -2.1708 
C 0.923373 4.21124 -1.133086 
C -0.503648 3.674667 -0.982464 
H 4.254488 0.052355 -2.217874 
H 3.135082 4.149248 -2.901686 
C 0.995676 5.400051 -2.104879 
C 3.562878 0.87751 -2.031785 
O 0.464116 1.613497 -0.199593 
H 2.448307 5.042591 0.211274 
C -3.063723 2.618017 -0.456665 
C 1.586552 1.788306 -0.998317 
H -3.818532 4.547649 -1.084294 
H -4.061803 2.22255 -0.24392 
H 0.765853 5.502646 0.636296 
C 2.455433 0.685116 -1.184197 
C -1.93835 1.789681 -0.267584 
C 2.930881 3.188026 -2.424063 
C -0.665645 2.360599 -0.500436 
C -1.656924 4.441025 -1.211173 
C -2.930792 3.928072 -0.9292 
H 0.374845 6.235288 -1.745304 
H -1.564361 5.461153 -1.591551 
C 1.825045 3.051481 -1.569769 
H 4.646512 2.225768 -3.33198 
C -2.846314 0.320475 2.00123 
C -3.391108 -0.960485 2.662476 
C -1.766506 0.996044 2.870397 
H -3.686962 1.035762 1.868566 
C -3.893757 -0.671834 4.088455 
H -2.584439 -1.714139 2.695536 
H -4.215691 -1.382866 2.061946 
C -2.287241 1.268948 4.290953 
H -0.889924 0.326453 2.922513 
H -1.435836 1.937774 2.397663 
C -2.803479 -0.018664 4.950863 
H -4.244085 -1.611673 4.551151 
H -4.771443 0.003889 4.039052 
H -1.482241 1.720629 4.898077 
H -3.108027 2.012886 4.24805 
H -3.190596 0.194503 5.963392 
H -1.961501 -0.727522 5.068847 
C -3.692589 -0.634256 -0.667617 
C -3.894619 -0.119867 -2.106868 
C -3.560646 -2.177243 -0.679851 
H -4.578929 -0.354909 -0.058934 
C -5.140037 -0.768107 -2.736749 
H -2.996346 -0.366535 -2.69755 
H -3.990324 0.977108 -2.128948 
C -4.796345 -2.834501 -1.315307 
H -2.655116 -2.432275 -1.262275 
H -3.39342 -2.571365 0.336735 
C -5.044549 -2.301608 -2.734288 
H -5.26812 -0.391239 -3.767256 
H -6.042947 -0.45793 -2.172362 
H -4.664589 -3.931166 -1.329508 
H -5.685078 -2.631026 -0.684777 
H -5.96196 -2.746913 -3.159366 
H -4.205612 -2.610867 -3.387229 
C 3.18076 -2.203961 -1.19047 
C 3.418814 -3.459683 -0.315997 
C 2.559226 -2.590024 -2.554183 
H 4.163646 -1.729535 -1.366994 
C 2.184948 -4.365968 -0.194462 
H 3.795562 -3.183206 0.683289 
H 4.233865 -4.030709 -0.804366 
C 1.355002 -3.538022 -2.427977 
H 2.265169 -1.686317 -3.115281 
H 3.355413 -3.091722 -3.139645 
C 1.675714 -4.778064 -1.583238 
H 1.383857 -3.837847 0.355606 
H 2.446657 -5.255025 0.406621 
H 0.512876 -2.991599 -1.967209 
H 1.01801 -3.82517 -3.439649 
H 2.448142 -5.391284 -2.091103 
H 0.777772 -5.413923 -1.488049 
C 3.045168 -0.631077 1.334826 
C 4.569668 -0.452602 1.197883 
C 2.433893 0.5589 2.101172 
H 2.819028 -1.548878 1.911893 
C 5.225017 -0.297864 2.583595 
H 4.774134 0.450566 0.591077 
H 5.028951 -1.305217 0.668949 
C 3.081112 0.701731 3.487502 
H 2.605447 1.48807 1.524969 
H 1.345659 0.423705 2.194424 
C 4.605328 0.860388 3.380192 
H 6.313361 -0.148932 2.464598 
H 5.093797 -1.240833 3.149693 
H 2.638949 1.565394 4.01616 
H 2.840953 -0.195425 4.090211 
H 5.06199 0.922177 4.384176 
H 4.834671 1.815489 2.867114 
