94 
title 
Pd -0.017895 -0.531749 -0.623713 
P -2.256128 -0.01972 -0.177877 
P 2.234028 -0.202273 -0.114546 
Cl 0.249702 0.642947 -2.660743 
Cl -0.193869 -2.177366 1.095379 
O 0.150613 0.955745 1.656312 
C 2.924138 1.417976 -0.740386 
C 2.065468 2.604561 -0.259879 
H 2.464612 3.902468 -1.9476 
C 2.587203 3.925364 -0.84734 
H 4.166763 4.270565 0.598151 
C 4.066435 4.149871 -0.498848 
C 4.92511 2.960413 -0.954314 
C 4.406425 1.629088 -0.378579 
H 2.80743 1.345311 -1.838613 
C 3.470576 -1.508597 -0.600589 
C 3.609143 -1.507444 -2.14022 
H 4.452985 -1.24271 -0.160548 
C 4.589505 -2.5975 -2.606001 
H 2.611773 -1.677069 -2.588084 
C 4.187894 -3.985239 -2.084467 
H 4.642359 -2.59689 -3.709249 
C 4.044812 -3.97695 -0.554907 
H 3.219156 -4.275441 -2.535799 
C 3.049131 -2.901469 -0.09199 
H -4.500991 -0.91944 -0.321658 
C 2.288345 -0.066761 1.724042 
C 3.377859 -0.562312 2.463543 
H 4.260369 -0.930875 1.933331 
C 3.34725 -0.626841 3.863525 
H 4.207254 -1.017943 4.413757 
C 2.189648 -0.222128 4.539881 
H 2.126117 -0.31123 5.628482 
C 1.094581 0.296226 3.834742 
C 1.157365 0.412878 2.438831 
C -1.187681 2.253306 3.195827 
C -2.437036 2.693716 3.643508 
H -2.4942 3.403498 4.473978 
C -3.60456 2.236633 3.01468 
H -4.588616 2.567191 3.358495 
C -3.499379 1.377939 1.915324 
H -4.413902 1.068473 1.399607 
C -2.253519 0.917024 1.432109 
C -1.093238 1.33909 2.128966 
H -1.352922 2.420356 -1.654903 
H -2.287855 2.985559 -0.249006 
H -4.080447 3.859901 -1.74257 
H 1.01529 2.441144 -0.548759 
H 2.100466 2.656681 0.844935 
H 1.970995 4.76468 -0.477986 
H 4.435768 5.085406 -0.955651 
C -3.128455 1.245077 -1.260266 
C -3.361914 0.696903 -2.682771 
H -4.118293 1.405179 -0.781865 
C -4.058455 1.743053 -3.571218 
H -2.386571 0.423149 -3.122784 
C -3.281196 3.067277 -3.598515 
H -4.173456 1.338103 -4.592429 
C -3.089846 3.613132 -2.17551 
H -3.805585 3.807624 -4.229016 
C -2.375695 2.590565 -1.276111 
H -2.510405 4.553523 -2.194853 
C -3.543296 -1.384188 -0.003001 
C -3.194401 -2.520029 -0.993352 
H -5.785305 -2.593362 1.164262 
C -4.275775 -3.612603 -0.980729 
H -2.221469 -2.947707 -0.690896 
C -4.486798 -4.171701 0.434445 
H -3.992239 -4.420682 -1.678474 
C -4.807108 -3.0444 1.428253 
H -5.293219 -4.926898 0.435402 
C -3.722941 -1.952544 1.419183 
H -3.059832 -2.123787 -2.014306 
H -5.230642 -3.191698 -1.35532 
H -3.562901 -4.687537 0.759829 
H -4.912843 -3.448965 2.450849 
H -3.988465 -1.155425 2.132539 
H -2.758675 -2.371034 1.754219 
H 2.953105 -2.90322 1.006308 
H 2.04054 -3.130733 -0.480541 
H 3.949363 -0.522214 -2.503118 
H 5.606552 -2.351254 -2.24055 
H 4.926521 -4.743075 -2.401409 
H 5.035839 -3.786995 -0.095487 
H 3.713785 -4.965868 -0.191335 
H -3.977089 -0.219128 -2.643558 
H -5.081545 1.929956 -3.186678 
H -2.288496 2.895765 -4.05691 
H -0.269785 2.63221 3.651063 
H 0.187998 0.579269 4.370862 
H 5.028538 0.799318 -0.757269 
H 4.514402 1.637417 0.723565 
H 5.979904 3.106253 -0.659386 
H 4.909619 2.902811 -2.060303 
