75 
title 
Pd 0.081376 0.10038 -0.676494 
Cl -0.310195 -2.22165 -0.812649 
Cl 0.458029 2.405561 -0.347966 
P -2.23255 0.340853 -0.450204 
P 2.337453 -0.20603 -0.147425 
C -2.464109 0.028026 1.377979 
H -3.539234 0.108212 1.615085 
H -2.164719 -1.023016 1.502854 
C -1.6339 0.933113 2.263048 
C -2.054691 2.264424 2.453171 
H -2.968127 2.605461 1.957064 
C -1.323564 3.162142 3.237827 
H -1.672097 4.19229 3.355818 
C -0.147716 2.731377 3.867504 
C 0.277594 1.408938 3.699141 
C -0.43798 0.494972 2.894789 
C 0.059231 -0.912661 2.809517 
C -0.757644 -1.942461 3.325838 
C -0.345124 -3.279587 3.325328 
C 0.918168 -3.610422 2.816093 
H 1.25852 -4.649965 2.805521 
C 1.747651 -2.600237 2.31849 
H 2.730171 -2.862319 1.915043 
C 1.342766 -1.250667 2.300031 
C 2.285272 -0.217161 1.72099 
H 3.313076 -0.351392 2.100654 
H 1.956454 0.800302 1.978971 
C -3.090927 1.922928 -0.830847 
C -2.504762 2.863965 -1.695841 
H -1.493398 2.693992 -2.072115 
C -3.205143 4.030553 -2.042622 
H -2.738023 4.760109 -2.710862 
C -4.488342 4.264882 -1.528715 
H -5.029208 5.177977 -1.795816 
C -5.082869 3.321529 -0.673413 
H -6.088998 3.491799 -0.278128 
C -4.390594 2.152816 -0.332288 
H -4.873138 1.410228 0.311545 
C -3.362041 -0.869592 -1.251551 
C -3.59622 -2.145427 -0.69923 
H -3.106655 -2.446187 0.229061 
C -4.444785 -3.051151 -1.351609 
H -4.619803 -4.036819 -0.909992 
C -5.050647 -2.705045 -2.568344 
H -5.707634 -3.416914 -3.077244 
C -4.807416 -1.442728 -3.13189 
H -5.273167 -1.163879 -4.081971 
C -3.970428 -0.529151 -2.477851 
H -3.79768 0.457224 -2.918632 
C 3.264898 -1.709543 -0.661218 
C 2.828869 -2.479707 -1.753957 
H 1.883766 -2.234338 -2.243754 
C 3.589247 -3.578011 -2.186712 
H 3.238314 -4.175346 -3.033492 
C 4.783112 -3.913995 -1.532947 
H 5.37037 -4.774294 -1.868558 
C 5.228852 -3.139965 -0.447997 
H 6.165927 -3.388813 0.059452 
C 4.477312 -2.038707 -0.019143 
H 4.846996 -1.424501 0.80844 
C 3.558871 1.10988 -0.546927 
C 3.689711 2.267709 0.246768 
H 3.061356 2.409733 1.128164 
C 4.615025 3.261399 -0.103052 
H 4.708026 4.153401 0.523748 
C 5.402568 3.123088 -1.25542 
H 6.119409 3.903562 -1.528127 
C 5.264297 1.980629 -2.059074 
H 5.872107 1.864267 -2.961494 
C 4.350281 0.978766 -1.707239 
H 4.259407 0.085888 -2.333003 
H 0.429187 3.415784 4.496876 
H 1.173285 1.054244 4.220061 
H -1.001495 -4.054878 3.732072 
H -1.726541 -1.671437 3.758519 
