55
KEKTAV
Ni      1.402493   10.358718    3.061866
P       1.939332    8.331566    3.565555
P       1.543590    9.852727    0.969425
Cl      0.776786   12.387018    2.469676
Cl      1.209677   10.795577    5.213366
C       2.280999    7.419584    2.025223
C       2.847844    6.152884    1.979288
C       3.152921    5.557609    0.768304
C       2.884953    6.224057   -0.416431
C       2.339134    7.481445   -0.397631
C       2.032328    8.098660    0.820092
C       3.461559    8.017793    4.560875
C       3.330191    8.306056    6.052257
C       4.658367    8.735900    3.981809
C       0.564276    7.446241    4.433356
C       0.816961    5.964238    4.687329
C      -0.740997    7.637694    3.703006
C       2.881835   10.665859   -0.020573
C       2.581897   12.095567   -0.437536
C       4.199800   10.572620    0.744361
C       0.009868   10.184740    0.009045
C      -1.237539    9.797116    0.803598
C      -0.004689    9.589209   -1.414233
H       3.045911    5.650465    2.855424
H       3.582860    4.617310    0.762629
H       3.112027    5.778015   -1.312431
H       2.141748    7.984630   -1.294695
H       3.630229    7.002495    4.451624
H       4.101888    7.933610    6.633097
H       2.469364    7.895345    6.491212
H       3.291700    9.272885    6.136501
H       5.445724    8.788195    4.611244
H       4.426237    9.693800    3.724466
H       4.914211    8.226975    3.174664
H       0.505525    7.908100    5.338401
H       0.732643    5.459140    3.795408
H       0.073953    5.586690    5.302930
H       1.689525    5.892810    5.072368
H      -0.859754    8.609625    3.387490
H      -1.546698    7.436165    4.274268
H      -0.689737    7.040760    2.944102
H       2.970138   10.114715   -0.869042
H       2.482841   12.691225    0.372447
H       1.708378   12.168270   -0.957720
H       3.344078   12.397860   -1.010926
H       4.072741   10.969300    1.667142
H       4.905849   11.135115    0.283769
H       4.426700    9.630025    0.762629
H      -0.014752   11.198890   -0.088678
H      -1.201799    8.775440    0.993191
H      -2.074995    9.923390    0.230562
H      -1.257928   10.318795    1.613935
H       0.881237    9.630025   -1.826762
H      -0.681105   10.076450   -1.986382
H      -0.300287    8.647890   -1.241489
