47
PdP(p-OMePh)3(maximum)
Pd          0.015488 -0.003458 -2.944855
P           0.008066 -0.003415 -0.715828
C          -1.431756 -0.862217  0.059517
C          -1.353352 -1.587985  1.262285
C          -2.477039 -2.200388  1.804407
C          -3.717657 -2.101740  1.156931
C          -3.814446 -1.388728 -0.045062
C          -2.674989 -0.787027 -0.581734
C           1.468157 -0.816986  0.070435
C           2.037920 -0.390953  1.284261
C           3.130045 -1.050960  1.834424
C           3.685060 -2.163153  1.183870
C           3.134992 -2.599607 -0.028291
C           2.043472 -1.920595 -0.572649
C          -0.021945  1.669889  0.065664
C          -0.650396  1.945419  1.294194
C          -0.622715  3.221696  1.843031
C           0.038185  4.264102  1.175573
C           0.663116  4.011179 -0.052275
C           0.620134  2.725303 -0.594171
H          -0.402651 -1.683872  1.777985
H          -2.418764 -2.765401  2.729782
O          -4.757609 -2.736934  1.768686
H          -4.757688 -1.306313 -0.573065
H          -2.749491 -0.255324 -1.527443
H           1.630524  0.471881  1.802059
H           3.575458 -0.721052  2.768072
O           4.754192 -2.739338  1.803530
H           3.549965 -3.449644 -0.558116
H           1.634527 -2.247876 -1.525669
H          -1.174579  1.156210  1.824663
H          -1.110347  3.438751  2.788580
O           0.007826  5.477811  1.795788
H           1.170773  4.800031 -0.595708
H           1.086878  2.537547 -1.558335
C           5.361000 -3.865028  1.189805
H           6.180660 -4.159374  1.847884
H           5.763196 -3.616741  0.198706
H           4.656013 -4.701272  1.092792
C          -6.036287 -2.675392  1.157773
H          -6.706627 -3.239823  1.808631
H          -6.029630 -3.133274  0.159755
H          -6.395870 -1.641033  1.076579
C           0.655785  6.571370  1.166115
H           0.510713  7.426988  1.828243
H           0.213595  6.792735  0.185740
H           1.731177  6.387080  1.042338
