32
PdP(i-Pr)3(maximum)
Pd         -0.947419  1.376647 -0.708637
P           0.269178 -0.292736  0.128140
C          -0.624701 -1.472038  1.327456
C           1.010621 -1.492060 -1.153469
C           1.796942  0.230552  1.136658
C           1.507705  0.539605  2.614462
C           2.340696 -1.024124 -1.765055
H           1.121848 -0.321237  3.167371
H           0.791451  1.363390  2.713607
H           2.437462  0.853801  3.105561
C           2.465424  1.463033  0.501554
H           3.387017  1.711113  1.044828
H           1.789107  2.323544  0.557096
H           2.722104  1.319270 -0.549601
C          -1.599448 -0.687922  2.223975
H          -2.055391 -1.361808  2.961531
H          -2.398023 -0.251571  1.613637
H          -1.120591  0.130017  2.765837
C          -1.394292 -2.615436  0.647415
H           0.159545 -1.922168  1.953357
H          -2.177429 -2.229406 -0.015136
H          -1.887752 -3.223812  1.416035
H          -0.750345 -3.283157  0.068142
H           2.676178 -1.761379 -2.505652
H           3.140025 -0.917792 -1.026287
H           2.222881 -0.067616 -2.287283
C           0.007136 -1.747123 -2.291956
H           1.199582 -2.434720 -0.619553
H          -0.960218 -2.109741 -1.938628
H          -0.174257 -0.817915 -2.843685
H           0.413252 -2.491373 -2.990013
H           2.494565 -0.618907  1.100728
