44
PdP(o-MePh)3(maximum)
Pd         -0.327007  1.496897 -2.151682
P          -0.091042 -0.042271 -0.522044
C          -1.548852 -0.189189  0.618803
C          -2.092613 -1.452959  0.904270
C          -3.226487 -1.595919  1.703973
C          -3.836331 -0.463729  2.239555
C          -3.299957  0.795715  1.973478
C          -2.163230  0.965786  1.171332
C           0.174595 -1.776741 -1.130949
C           1.228017 -2.548538 -0.612212
C           1.497936 -3.830767 -1.090317
C           0.705377 -4.367034 -2.102676
C          -0.350271 -3.616027 -2.618652
C          -0.640584 -2.324979 -2.156507
C           1.342940  0.252629  0.620665
C           1.151556  0.214608  2.012248
C           2.190144  0.495180  2.900048
C           3.450860  0.817502  2.402687
C           3.657114  0.848435  1.023937
C           2.629649  0.571879  0.111587
H          -1.621128 -2.340930  0.496759
H          -3.623869 -2.586947  1.906300
H          -4.721612 -0.556159  2.863234
H          -3.772883  1.678660  2.397143
C          -1.636851  2.362375  0.945662
H           1.846265 -2.141794  0.180888
H           2.320165 -4.402891 -0.668878
H           0.902159 -5.363812 -2.488622
H          -0.972336 -4.037919 -3.404663
C          -1.813394 -1.586916 -2.754570
H           2.010312  0.457859  3.971151
H           4.271147  1.041023  3.079732
H           4.643017  1.094136  0.636142
H          -2.303772  3.105703  1.393929
H          -1.534675  2.578144 -0.129050
H          -0.639836  2.495546  1.382296
H          -2.240973 -2.149827 -3.590282
H          -1.512679 -0.590027 -3.112320
H          -2.607430 -1.422329 -2.016184
C           2.942098  0.606450 -1.364633
H           0.175178 -0.040794  2.410099
H           2.232209  1.251885 -1.904850
H           2.860840 -0.388504 -1.818984
H           3.958510  0.973941 -1.538080
