44
PdP(m-MePh)3(maximum)
Pd         -0.078206 -0.250269 -2.377243
P           0.100228  0.009995 -0.172759
C           1.640946 -0.688652  0.581246
C           2.304554 -0.098062  1.664754
C           3.457146 -0.693539  2.184635
C           3.950023 -1.875257  1.635309
C           3.304505 -2.484686  0.548425
C           2.158450 -1.873154  0.031876
C           0.094503  1.764779  0.420645
C          -0.466124  2.161285  1.645602
C          -0.420847  3.501510  2.029518
C           0.181887  4.452867  1.204340
C           0.744752  4.082808 -0.023046
C           0.684376  2.734864 -0.400825
C          -1.250446 -0.773061  0.823458
C          -1.037102 -1.381101  2.067683
C          -2.112614 -1.940423  2.763486
C          -3.398964 -1.893535  2.230732
C          -3.637653 -1.292191  0.985277
C          -2.551574 -0.746096  0.295212
H           1.931184  0.823746  2.099305
H           4.849905 -2.327859  2.046861
H           1.655909 -2.314093 -0.826678
H          -0.940759  1.430067  2.292410
H           0.208697  5.495626  1.512689
H          -0.039179 -1.425535  2.492284
H          -4.227770 -2.334367  2.780950
H          -2.709073 -0.297788 -0.683705
C          -5.032477 -1.249644  0.403873
C           3.844868 -3.762375 -0.052485
H           1.092867  2.427261 -1.361933
C           1.391421  5.103951 -0.931324
H          -5.043652 -0.749678 -0.569619
H          -5.724369 -0.711681  1.064143
H          -5.439264 -2.259324  0.266209
H          -1.942148 -2.415779  3.726280
H           3.235296 -4.094273 -0.898724
H           3.863103 -4.574549  0.685224
H           4.873245 -3.631468 -0.411805
H           3.972262 -0.229414  3.022017
H           1.351194  6.107878 -0.496724
H           0.892818  5.141672 -1.907790
H           2.445043  4.862147 -1.118242
H          -0.859660  3.807012  2.976101
