44
PdPBz3(maximum)
Pd          0.063778  0.034649 -1.916872
P           0.048231  0.032832  0.304690
C          -0.418367  2.802242  0.796044
C           0.395921  3.544963  1.662531
C           0.839568  4.822500  1.313458
C           0.473256  5.379955  0.087771
C          -0.339717  4.650906 -0.784005
C          -0.779967  3.374598 -0.433790
C          -2.128885 -1.743951  0.786501
C          -3.183057 -1.390318  1.640486
C          -4.510790 -1.635571  1.283439
C          -4.806177 -2.242264  0.061997
C          -3.764603 -2.602211 -0.797076
C          -2.439495 -2.354400 -0.438892
C           2.663558 -0.968958  0.830314
C           2.883676 -2.040397  1.707261
C           3.759466 -3.075386  1.371944
C           4.432264 -3.054163  0.149609
C           4.223225 -1.990927 -0.732592
C           3.346834 -0.959280 -0.396084
H           0.677817  3.122290  2.624703
H           1.466962  5.381976  2.002563
H           0.813963  6.375235 -0.184688
H          -0.635093  5.078480 -1.738726
H          -1.408405  2.809570 -1.117462
H          -2.961267 -0.925983  2.599152
H          -5.311967 -1.356386  1.962888
H          -5.838110 -2.437647 -0.216983
H          -3.984050 -3.080442 -1.748235
H          -1.633043 -2.632190 -1.112761
H           2.370312 -2.060101  2.666365
H           3.917993 -3.894393  2.068769
H           5.117035 -3.856233 -0.112483
H           4.746548 -1.962766 -1.684912
H           3.182386 -0.137258 -1.088141
C          -0.887861  1.418215  1.171652
H          -0.807122  1.266875  2.256307
H          -1.939259  1.274014  0.899010
C           1.706896  0.141112  1.190719
H           1.522428  0.153653  2.273175
H           2.121027  1.118552  0.918916
C          -0.696390 -1.465633  1.170673
H          -0.612052 -1.317400  2.255485
H          -0.048939 -2.308659  0.905063
