39
PdPPh(n-Bu)2(maximum)
Pd          0.411586  1.943546 -0.938733
P          -0.031541  0.246119  0.430785
C           1.381559 -0.350040  1.499518
H           1.620339  0.480472  2.176885
H           1.038542 -1.186392  2.124475
C          -1.328613  0.563482  1.738916
C          -2.677243  1.029720  1.175814
C           2.632359 -0.754849  0.709161
H          -0.909661  1.336759  2.396161
H          -1.462382 -0.339392  2.351387
C           3.796250 -1.185881  1.613313
H           2.945239  0.090071  0.080867
H           2.382551 -1.574777  0.022018
C           5.048056 -1.584501  0.824130
H           5.411607 -0.750188  0.211834
H           4.839484 -2.423614  0.149116
H           5.862258 -1.887944  1.492265
H           3.476850 -2.028087  2.243836
H           4.042471 -0.365176  2.302065
C          -3.718710  1.307450  2.269449
C          -5.061553  1.783662  1.704882
H          -4.941964  2.710038  1.129744
H          -5.497462  1.032721  1.034499
H          -5.785804  1.977984  2.504309
H          -3.069826  0.269930  0.486108
H          -2.517904  1.936663  0.577219
H          -3.873787  0.396765  2.865511
H          -3.323359  2.062924  2.963472
C          -0.625935 -1.322554 -0.357079
C          -0.968757 -2.458325  0.396203
H          -0.894401 -2.440685  1.480837
C          -1.408686 -3.624420 -0.230583
H          -1.670362 -4.493733  0.367335
C          -1.512205 -3.674946 -1.623272
H          -1.854651 -4.583846 -2.111076
C          -1.174321 -2.554782 -2.383516
H          -1.252231 -2.586856 -3.467121
C          -0.735173 -1.387893 -1.753352
H          -0.470378 -0.509383 -2.337392
