34
PdPPh2(i-Pr)(maximum)
Pd         -1.597481 -0.448524  1.814785
P          -0.272399  0.037552  0.087711
C           0.469163  1.739482  0.115106
C           1.558633  2.111107 -0.688990
C           2.057464  3.413874 -0.652548
C           1.474785  4.366446  0.186864
C           0.393719  4.008321  0.993632
C          -0.101446  2.703082  0.960575
C           1.212527 -1.055773 -0.106404
C           1.837714 -1.328974 -1.334710
C           2.965652 -2.150622 -1.395702
C           3.492136 -2.708588 -0.229745
C           2.879803 -2.447255  0.997653
C           1.746501 -1.635684  1.055770
H           2.035262  1.379392 -1.334708
H           2.905251  3.683734 -1.277147
H           1.866631  5.379809  0.216054
H          -0.060950  4.741368  1.654925
H          -0.933612  2.412756  1.597830
H           1.447532 -0.909382 -2.257146
H           3.431283 -2.354342 -2.356574
H           4.369344 -3.348247 -0.278539
H           3.277880 -2.883347  1.910106
H           1.254229 -1.450108  2.007455
C          -1.097085 -0.003933 -1.607449
H          -0.337558  0.272895 -2.351911
C          -2.226421  1.035434 -1.670460
C          -1.627542 -1.411072 -1.918433
H          -2.373347 -1.711147 -1.173014
H          -0.833366 -2.164308 -1.920279
H          -2.108058 -1.422927 -2.904946
H          -1.861982  2.050528 -1.483935
H          -3.000902  0.810497 -0.927692
H          -2.691988  1.020148 -2.663868
