31
PdPPh2Et(maximum)
Pd         -1.690561  0.168957  1.826765
P          -0.247081  0.149930  0.132551
C           0.710358 -1.420728 -0.072148
C           0.988921 -2.015353 -1.313007
C           1.712491 -3.209129 -1.385163
C           2.175746 -3.822099 -0.221092
C           1.904332 -3.240655  1.020343
C           1.170648 -2.057869  1.092965
C           1.084159  1.439998  0.194729
C           2.251294  1.352331 -0.581579
C           3.211213  2.363669 -0.535900
C           3.017980  3.478946  0.283558
C           1.862926  3.575678  1.060714
C           0.905156  2.559733  1.019856
H           0.640759 -1.558998 -2.234143
H           1.912648 -3.657932 -2.354793
H           2.737929 -4.750338 -0.279014
H           2.253896 -3.715394  1.933420
H           0.934348 -1.622775  2.061063
H           2.420780  0.484480 -1.213316
H           4.112772  2.279211 -1.137406
H           3.768037  4.264754  0.319484
H           1.708882  4.437362  1.705055
H           0.010589  2.619632  1.635366
C          -0.963772  0.441173 -1.570185
H          -1.566471 -0.441866 -1.813846
H          -0.150145  0.503811 -2.303939
C          -1.827763  1.705440 -1.637540
H          -2.658624  1.647050 -0.926575
H          -2.242149  1.831838 -2.644590
H          -1.243602  2.601155 -1.400406
