14

C           -1.94359   0.76797  -0.57155
C           -0.45207   0.52831  -0.40488
C           -0.15644  -0.64924   0.50698
O           -1.03945  -1.31986   1.04019
C            1.26157  -1.02172   0.77791
C            2.33319  -0.39601   0.27712
H           -2.12058   1.62160  -1.23307
H           -2.43687  -0.10856  -1.00460
H           -2.41840   0.97805   0.39261
H            0.00686   1.42661   0.02156
H           -0.01177   0.33045  -1.38794
H            1.37964  -1.87499   1.43992
H            2.26677   0.45869  -0.38669
H            3.33114  -0.74130   0.53246