35
PtP(p-ClPh)3
Pt         -0.002902 -0.069339 -2.535910
P          -0.001820 -0.019206 -0.396954
C           1.595175  0.527696  0.348379
C           1.659706  1.286619  1.526256
C           2.890127  1.665072  2.065843
C           4.063602  1.278729  1.419649
C           4.026270  0.527264  0.243904
C           2.791827  0.160511 -0.287733
C          -1.258760  1.116359  0.335352
C          -1.938934  0.825734  1.527097
C          -2.869546  1.721954  2.055608
C          -3.119035  2.917927  1.384084
C          -2.458844  3.228594  0.194074
C          -1.536287  2.323422 -0.326057
C          -0.342283 -1.648783  0.399217
C           0.289194 -2.060363  1.582158
C          -0.011348 -3.294694  2.160712
C          -0.952492 -4.121273  1.548886
C          -1.590953 -3.737300  0.368381
C          -1.277922 -2.505671 -0.202576
H           0.749126  1.595663  2.029724
H           2.937454  2.256363  2.974102
H           4.948906  0.243286 -0.250806
H           2.748499 -0.403328 -1.215467
H          -1.754590 -0.106978  2.050810
H          -3.397691  1.492560  2.974995
H          -2.671999  4.159532 -0.320260
H          -1.034154  2.542448 -1.264364
H           1.028016 -1.424664  2.059818
H           0.482126 -3.612465  3.073036
H          -2.313605 -4.397171 -0.099548
H          -1.749578 -2.206923 -1.134677
Cl          5.613693  1.753366  2.091334
Cl         -4.290303  4.047586  2.041675
Cl         -1.334068 -5.674851  2.270621
