41
PtP(i-Bu)3
Pt          0.116094  0.560607 -1.093985
P           0.097192 -0.958745  0.427226
C          -0.258334 -2.722067 -0.119940
H          -1.347678 -2.829595 -0.083605
H           0.142188 -3.355034  0.685580
C           1.681166 -1.213588  1.407892
C          -1.147974 -0.775279  1.824230
C          -2.559853 -0.194799  1.561522
C           2.582617 -0.012712  1.787737
C           0.242428 -3.246861 -1.487790
C           1.749889 -3.055863 -1.711096
C           3.386299  0.520942  0.593198
C          -2.538761  1.325634  1.347264
H           2.340672 -3.503514 -0.901827
H           2.059291 -3.534853 -2.647424
H           2.005602 -1.991897 -1.781240
C          -0.569805 -2.686224 -2.664248
H           0.054542 -4.331246 -1.453038
H          -0.460866 -1.596185 -2.727611
H          -0.228980 -3.125169 -3.609705
H          -1.637215 -2.913995 -2.553448
H           3.991593 -0.271831  0.136438
H           4.066170  1.319156  0.914869
H           2.718056  0.923751 -0.178013
C           1.834441  1.120298  2.505455
H           3.307999 -0.427997  2.504537
H           1.312290  0.759424  3.400651
H           2.537556  1.897625  2.826629
H           1.100517  1.588993  1.839026
H          -1.965807  1.585006  0.448270
H          -2.080535  1.839925  2.201078
H          -3.559139  1.710594  1.231670
C          -3.325302 -0.904934  0.435317
H          -4.347491 -0.514658  0.366336
H          -3.397939 -1.985683  0.611202
H          -2.841084 -0.741787 -0.534873
H          -3.112224 -0.381266  2.495608
H          -0.655642 -0.158538  2.583786
H          -1.239654 -1.783274  2.255006
H           2.277906 -1.927095  0.829172
H           1.366838 -1.740148  2.321093
