44
PtP(o-MePh)3(minimum)
Pt          0.925502 -1.322759 -1.467739
P          -0.120036  0.016270 -0.132276
C           1.087824  0.859927  1.008921
C           1.093202  2.209088  1.443003
C           2.129839  2.619352  2.297561
C           3.128109  1.752386  2.734720
C           3.116616  0.425317  2.309016
C           2.112257 -0.002749  1.445092
C          -1.012686  1.318329 -1.120878
C          -2.327559  1.815788 -0.944471
C          -2.785957  2.793216 -1.843622
C          -1.996134  3.289480 -2.877292
C          -0.701280  2.801023 -3.044216
C          -0.229055  1.817303 -2.179947
C          -1.354724 -0.945491  0.879658
C          -1.650044 -0.827656  2.260579
C          -2.613381 -1.695439  2.801974
C          -3.284729 -2.643477  2.034394
C          -2.992751 -2.754790  0.676059
C          -2.027721 -1.921139  0.118077
C           0.060791  3.250936  1.068786
H           2.142671  3.654244  2.631169
H           3.908395  2.114555  3.398909
H           3.887554 -0.269251  2.630627
H           2.118176 -1.025119  1.076686
C          -3.283352  1.386655  0.147941
H          -3.795949  3.175619 -1.716974
H          -2.392543  4.048035 -3.547050
H          -0.067235  3.167779 -3.846553
H           0.765114  1.404466 -2.328842
C          -1.016689  0.169213  3.207278
H          -2.840876 -1.614272  3.862182
H          -4.023881 -3.291830  2.497440
H          -3.496012 -3.491889  0.056672
H          -1.765627 -2.030216 -0.930890
H          -1.124395  1.201967  2.861618
H           0.054146 -0.009869  3.341007
H          -1.493176  0.102070  4.190115
H          -2.840103  1.457877  1.145572
H          -3.613742  0.350920  0.023408
H          -4.172208  2.025008  0.136344
H          -0.963228  2.915834  1.258590
H           0.113497  3.521751  0.009890
H           0.222197  4.160621  1.655426
