29
PtPEt2(t-Bu)(minimum)
Pt          1.341929  1.040450 -0.094523
P          -0.708823  0.383458 -0.032716
C          -1.662076  1.283759  1.308289
H          -1.155155  2.250391  1.387078
H          -1.437647  0.755484  2.242598
C          -1.539088  0.797471 -1.663376
C          -0.885980 -1.480805  0.314125
C          -2.905906  0.220328 -2.065930
H          -2.865841 -0.862712 -2.214438
H          -3.215177  0.664906 -3.019770
H          -3.691624  0.431689 -1.336468
C          -3.174330  1.506463  1.160921
H          -3.548823  2.053369  2.034602
H          -3.408779  2.109001  0.277554
H          -3.736622  0.571024  1.092831
H          -0.790860  0.537761 -2.418615
H          -1.576106  1.893949 -1.658919
C          -0.374873 -2.244723 -0.923548
H          -1.011250 -2.091103 -1.801605
H           0.644066 -1.935232 -1.179709
H          -0.362670 -3.321537 -0.709891
C          -2.330399 -1.902780  0.651712
H          -2.685129 -1.430485  1.573796
H          -3.041631 -1.675412 -0.146072
H          -2.355364 -2.988412  0.814738
C           0.018137 -1.824965  1.516759
H           1.060024 -1.559948  1.315237
H          -0.043785 -2.903044  1.717630
H          -0.291507 -1.301478  2.428713
