23
PtPEt3(minimum)
Pt          1.439795  0.005864  0.002208
P          -0.704910  0.002394  0.001075
C          -1.399232 -0.908313  1.479102
H          -0.694267 -1.728820  1.646681
H          -1.272068 -0.228903  2.331023
C          -1.402045  1.736194  0.045818
C          -1.396866 -0.825964 -1.525438
H          -0.692299 -0.561481 -2.320376
H          -1.267714 -1.902867 -1.360659
C          -2.830910 -0.507174 -1.974137
H          -2.952689  0.555475 -2.208784
H          -3.063673 -1.069252 -2.886455
H          -3.578303 -0.775672 -1.222383
C          -2.834323  1.963512  0.551463
H          -2.952228  1.634702  1.589328
H          -3.584278  1.447301 -0.054447
H          -3.067742  3.034545  0.522639
C          -2.832659 -1.457292  1.424222
H          -2.953646 -2.187665  0.617420
H          -3.064127 -1.971984  2.364437
H          -3.581719 -0.672414  1.285953
H          -1.278625  2.129660 -0.970868
H          -0.696470  2.296236  0.667674
