26
PtPEt2(i-Pr)(minimum)
Pt          1.505003  0.044098  0.259700
P          -0.632363  0.184860  0.077340
C          -1.125298  1.681284 -0.933883
H          -0.343744  2.417623 -0.722558
H          -0.978936  1.385968 -1.980552
C          -1.440537  0.352920  1.755770
C          -1.349761 -1.312619 -0.810959
C          -2.950051  0.126613  1.935877
C          -2.505803  2.324315 -0.735607
H          -3.329477  1.635817 -0.944902
H          -2.630844  2.702539  0.284199
H          -2.610574  3.179796 -1.413667
H          -1.159400  1.358388  2.093186
H          -0.881702 -0.335580  2.397564
C          -2.786204 -1.180040 -1.345088
H          -3.523948 -1.074242 -0.543855
H          -2.897064 -0.330612 -2.026407
H          -3.044879 -2.084868 -1.909853
C          -1.161275 -2.583613  0.033575
H          -0.676938 -1.390557 -1.674952
H          -1.418695 -3.468590 -0.561357
H          -0.122716 -2.681262  0.365728
H          -1.806561 -2.585879  0.919965
H          -3.226799  0.337126  2.976084
H          -3.555772  0.774471  1.297457
H          -3.232978 -0.909839  1.730215
