29
PtPEt(i-Pr)2(minimum)
Pt          1.252808  0.229340 -0.961224
P          -0.819708  0.036064 -0.395683
C          -1.564657  1.674763  0.179129
C          -1.804776 -0.528021 -1.890724
C          -1.122807 -1.219792  0.986670
C          -0.077133 -2.347374  0.936724
H           0.939599 -1.947073  0.960284
H          -0.219503 -3.023690  1.789752
H          -0.176871 -2.940407  0.019697
C          -2.539237 -1.820809  1.038548
H          -0.951369 -0.639702  1.904166
H          -2.744195 -2.427871  0.149536
H          -3.327725 -1.070371  1.129128
H          -2.617029 -2.486700  1.907234
C          -2.930965  1.606078  0.884259
H          -3.291553  2.626261  1.067224
H          -2.851771  1.115674  1.860847
H          -3.695485  1.087636  0.301703
C          -0.562769  2.448060  1.055196
H          -1.683059  2.226797 -0.763732
H          -0.374018  1.925648  2.001290
H          -0.971505  3.437038  1.299691
H           0.396314  2.571647  0.545468
C          -3.314758 -0.272576 -2.003065
H          -1.290157 -0.051591 -2.730785
H          -1.586735 -1.599215 -1.983920
H          -3.889715 -0.758730 -1.210483
H          -3.676767 -0.667655 -2.960066
H          -3.548150  0.796941 -1.987981
