14
PtPMe3
Pt         -0.287384 -0.000016 -1.429594
P           1.406934  0.000092 -0.131651
C           3.053268 -0.000115 -0.971045
H           3.136867 -0.886003 -1.606429
H           3.868073  0.000041 -0.236459
H           3.136872  0.885495 -1.606815
C           1.531615  1.444379  1.014709
H           1.576369  2.367984  0.431252
H           2.425825  1.367697  1.645576
H           0.641574  1.483053  1.648583
C           1.531530 -1.444373  1.014486
H           1.576226 -2.367897  0.430893
H           0.641482 -1.483080  1.648346
H           2.425742 -1.367841  1.645367
