20
PtPMeEt2(minimum)
Pt         -0.915093 -0.076074 -1.532646
P           1.001454  0.001659 -0.583866
C           1.237883  1.558145  0.413792
H           1.092326  2.373717 -0.304394
H           0.379574  1.602695  1.093378
C           1.305209 -1.430282  0.577956
C           2.431288 -0.008958 -1.758689
C           2.757732 -1.835414  0.869740
H           2.772523 -2.675101  1.574512
H           3.342009 -1.023606  1.312683
H           3.273836 -2.163208 -0.038560
C           2.550420  1.747374  1.187067
H           2.567116  2.740291  1.651694
H           3.429233  1.677662  0.536915
H           2.662373  1.011504  1.989689
H           0.763618 -2.273159  0.137476
H           0.772423 -1.181835  1.504393
H           3.395765  0.049742 -1.243366
H           2.328654  0.842858 -2.436390
H           2.397060 -0.923722 -2.356709
