32
PtPMe(t-Bu)2
Pt         -1.529364 -0.069767  0.057713
P           0.580175 -0.010451 -0.388961
C           1.434791  1.593389  0.221741
C           1.473159 -1.599591  0.207260
C           0.911752  0.016122 -2.216368
C           0.941341 -2.751363 -0.676199
H           1.292797 -2.680053 -1.710928
H           1.303282 -3.705679 -0.272161
H          -0.153856 -2.774698 -0.680336
C           1.082802 -1.900684  1.668677
H          -0.004603 -1.963777  1.774380
H           1.522634 -2.862126  1.966328
H           1.446223 -1.140890  2.365749
C           3.007834 -1.543359  0.084006
H           3.342007 -1.283254 -0.926414
H           3.455431 -0.836086  0.788746
H           3.419204 -2.534674  0.316004
C           2.804097  1.847516 -0.444005
H           2.719019  1.963246 -1.529264
H           3.217784  2.785694 -0.051278
H           3.532953  1.059888 -0.240311
C           1.593672  1.563089  1.753433
H           1.912288  2.553537  2.104090
H           0.647418  1.317771  2.247209
H           2.352841  0.844190  2.077657
C           0.494636  2.763300 -0.147125
H           0.956121  3.706141  0.176697
H           0.322499  2.833359 -1.226857
H          -0.479042  2.657817  0.339561
H           0.584165  0.976420 -2.622453
H           0.321559 -0.766972 -2.695219
H           1.971339 -0.129105 -2.452229
