17
PtPMe2Et(minimum)
Pt          1.124841 -0.000535  0.008166
P          -0.986585  0.326534  0.030950
C          -1.630712  1.131151  1.566750
H          -1.108467  2.080719  1.711293
H          -2.708806  1.318788  1.505964
H          -1.418857  0.491837  2.428290
C          -1.617654  1.436391 -1.306972
H          -2.696544  1.606333 -1.216191
H          -1.095953  2.395144 -1.244385
H          -1.397991  0.992573 -2.282017
C          -1.992951 -1.230063 -0.139271
C          -3.521107 -1.082762 -0.143476
H          -3.872333 -0.469396 -0.980064
H          -1.667433 -1.883101  0.678483
H          -1.646167 -1.707154 -1.062880
H          -3.990784 -2.068211 -0.241865
H          -3.893637 -0.635421  0.784219
