26
PtPMe(i-Pr)2(minimum)
Pt          1.209016  0.180025 -0.229426
P          -0.874163  0.017962  0.272026
C          -1.518521 -1.730310 -0.022171
C          -1.244281  0.359567  2.053380
C          -1.947497  1.232985 -0.685698
C          -3.463527  1.121215 -0.452292
H          -3.730856  1.276681  0.599350
H          -3.868304  0.155723 -0.768474
H          -3.978142  1.896761 -1.033492
C          -1.457893  2.670361 -0.435867
H          -1.734592  0.984592 -1.732860
H          -1.664839  2.992601  0.591950
H          -1.981253  3.362126 -1.107530
H          -0.381443  2.757436 -0.611892
C          -2.776238 -2.144620  0.761316
H          -2.650712 -2.022156  1.841824
H          -2.980437 -3.206648  0.575443
H          -3.666283 -1.585141  0.458520
C          -1.650266 -2.019750 -1.526144
H          -0.680150 -2.329386  0.355265
H          -1.844913 -3.087377 -1.685453
H          -0.731001 -1.756819 -2.060025
H          -2.481475 -1.464836 -1.977058
H          -0.731153 -0.383901  2.669738
H          -2.317340  0.328051  2.267765
H          -0.849796  1.344097  2.315948
