20
PtPMe2(i-Pr)(minimum)
Pt          0.887196  0.400430 -1.346963
P          -0.976585  0.656530 -0.327486
C          -0.933029  1.923149  1.019884
H          -0.551768  2.859609  0.604243
H          -1.925621  2.097464  1.449704
H          -0.246060  1.596169  1.805594
C          -2.369010  1.247951 -1.392888
H          -3.286237  1.402023 -0.812932
H          -2.074444  2.193418 -1.856372
H          -2.558158  0.524654 -2.190121
C          -1.619022 -0.899034  0.505538
C          -2.905546 -0.698559  1.323901
H          -3.751692 -0.414470  0.687476
H          -3.175269 -1.639985  1.818308
H          -2.795705  0.059917  2.105777
C          -1.775375 -2.037305 -0.515510
H          -0.851731 -2.185695 -1.083375
H          -2.584083 -1.829893 -1.226991
H          -2.024576 -2.972539  0.000660
H          -0.804220 -1.166774  1.191227
