25
PtPPh2Cl
Pt         -1.750484 -0.849324 -0.223737
P           0.123599  0.058168 -0.622550
C           0.368331  1.785055 -0.059354
C           1.650755  2.352614  0.005967
C           1.807349  3.674097  0.419703
C           0.689775  4.436043  0.772147
C          -0.586561  3.874093  0.711709
C          -0.750019  2.551271  0.297205
C           1.598279 -0.864396 -0.024017
C           2.774394 -1.038764 -0.766366
C           3.853500 -1.731590 -0.213247
C           3.770176 -2.250362  1.079537
C           2.598931 -2.081548  1.821935
C           1.514417 -1.399294  1.272520
H           2.523075  1.764822 -0.262741
H           2.801945  4.108851  0.468516
H           0.816142  5.465873  1.095303
H          -1.456250  4.463670  0.987858
H          -1.737428  2.100283  0.249816
H           2.844700 -0.649491 -1.776092
H           4.757913 -1.868997 -0.799570
H           4.611038 -2.791992  1.504145
H           2.523815 -2.491128  2.825424
H           0.593379 -1.291212  1.838938
Cl          0.526220  0.257609 -2.694571
