37
PtPPh2(t-Bu)
Pt         -1.697264 -0.306476  0.817045
P           0.119878  0.104758 -0.249768
C           1.198485  1.389293  0.534336
C           2.568826  1.487291  0.237754
C           3.346763  2.497509  0.805521
C           2.768480  3.421022  1.679040
C           1.410275  3.326457  1.987882
C           0.630345  2.316123  1.422149
C           1.243058 -1.367642 -0.313135
C           1.376002 -2.220082 -1.419094
C           2.189612 -3.354202 -1.354758
C           2.878358 -3.661384 -0.182309
C           2.743791 -2.828852  0.931695
C           1.932716 -1.697780  0.868501
H           3.035775  0.764746 -0.424305
H           4.405645  2.558927  0.568358
H           3.376072  4.205440  2.122534
H           0.956554  4.034867  2.675792
H          -0.423622  2.225204  1.670316
H           0.844828 -2.016213 -2.340064
H           2.279525 -3.997076 -2.226360
H           3.509795 -4.544288 -0.133128
H           3.268344 -3.061802  1.854493
H           1.829751 -1.066397  1.745787
C          -0.195434  0.778912 -2.014391
C          -0.852959  2.165421 -1.839628
C          -1.204263 -0.133234 -2.744070
C           1.096936  0.938482 -2.837926
H          -1.767748  2.095647 -1.241749
H          -1.116384  2.560344 -2.829425
H          -0.180648  2.883848 -1.360595
H           1.786477  1.649268 -2.372064
H           0.839586  1.332641 -3.829733
H           1.628711 -0.005950 -2.985530
H          -2.119401 -0.246521 -2.154262
H          -0.814809 -1.134432 -2.948441
H          -1.462940  0.321893 -3.709314
