25
PtPPh2H
Pt         -1.804254 -0.715723 -0.336488
C           1.568556 -1.029398 -0.417302
C           2.746654 -0.942575 -1.175402
C           3.840928 -1.751148 -0.868362
C           3.770351 -2.647141  0.201667
C           2.601737 -2.737545  0.960317
C           1.500692 -1.937240  0.648896
C           0.573040  1.711426 -0.199819
C           1.419672  1.891514  0.902123
C           1.728327  3.178349  1.347449
C           1.195315  4.293412  0.698749
C           0.345957  4.119446 -0.397215
C           0.033168  2.835835 -0.842539
H           2.809544 -0.246661 -2.008447
H           4.746227 -1.684416 -1.465644
H           4.622972 -3.277896  0.438479
H           2.541810 -3.438600  1.788326
H           0.577135 -2.019639  1.215307
H           1.846678  1.030538  1.407876
H           2.389829  3.307868  2.199905
H           1.440233  5.294045  1.044481
H          -0.072933  4.983558 -0.905872
H          -0.636933  2.708126 -1.689439
P           0.130182  0.036447 -0.818570
H           0.338784  0.237298 -2.206343
