44
NiNBz3(maximum)
Ni         -0.008350  0.002352  1.577695
N          -0.004370  0.001422 -0.344609
C          -0.655314  2.475803 -0.527678
C          -1.568109  2.940130 -1.483314
C          -2.455998  3.977097 -1.184499
C          -2.432378  4.571323  0.077428
C          -1.514049  4.128778  1.033894
C          -0.632024  3.091164  0.732889
C           2.466029 -0.666198 -0.527365
C           3.324536 -0.118994 -1.489402
C           4.666359  0.135714 -1.193224
C           5.168816 -0.165984  0.072700
C           4.326251 -0.728236  1.036022
C           2.986911 -0.977967  0.737536
C          -1.815944 -1.804984 -0.537816
C          -1.766842 -2.818027 -1.503895
C          -2.217003 -4.109023 -1.214875
C          -2.733835 -4.398968  0.048050
C          -2.803873 -3.392224  1.015320
C          -2.350577 -2.105756  0.723937
H          -1.583352  2.488695 -2.473220
H          -3.159658  4.320247 -1.938245
H          -3.119439  5.379801  0.313190
H          -1.481597  4.595582  2.014819
H           0.076826  2.736969  1.476884
H           2.941031  0.107942 -2.482081
H           5.315460  0.564659 -1.951973
H           6.212327  0.028207  0.306486
H           4.713969 -0.976907  2.020419
H           2.325122 -1.404661  1.486979
H          -1.375113 -2.594686 -2.494132
H          -2.166709 -4.882369 -1.976743
H          -3.087465 -5.401020  0.276365
H          -3.216680 -3.608107  1.997236
H          -2.392739 -1.322453  1.476502
C           0.325905  1.376690 -0.874335
H           0.404526  1.300028 -1.971144
H           1.317355  1.620467 -0.490091
C          -1.359797 -0.401975 -0.876154
H          -1.333686 -0.289502 -1.972515
H          -2.069082  0.330280 -0.487876
C           1.023822 -0.971380 -0.871996
H           0.918038 -1.003904 -1.968748
H           0.742228 -1.951796 -0.485312
