23
NiNEt3(maximum)
Ni         -0.000329 -0.026686  1.572917
N          -0.002725  0.008777 -0.353974
C          -1.003796 -0.980659 -0.877172
C           1.361651 -0.347828 -0.869861
C          -0.368721  1.383666 -0.834992
H           0.351185  2.071232 -0.390376
C          -1.778035  1.851295 -0.475186
H          -0.230683  1.413197 -1.929376
H          -1.086445 -0.842215 -1.968701
H          -1.963662 -0.714935 -0.433915
C          -0.706087 -2.444846 -0.558398
H           1.298575 -0.449052 -1.966735
H           1.603343 -1.328291 -0.458837
C           2.477679  0.627161 -0.498527
H           2.392022  1.590192 -1.010464
H           3.438226  0.185917 -0.788615
H           2.486720  0.800798  0.582438
H          -1.574978 -3.048588 -0.844732
H          -0.532218 -2.572809  0.514920
H           0.157698 -2.834367 -1.105357
H          -2.559550  1.305894 -1.012546
H          -1.873617  2.909904 -0.743031
H          -1.951175  1.748042  0.600889
