35
NiP(i-Pr)2(t-Bu)(maximum)
Ni          0.972304  1.423004 -1.443999
P          -0.226128  0.229245 -0.257566
C          -1.332623 -0.926321 -1.292465
C           0.819542 -0.779152  0.999343
C          -1.450659  1.232212  0.803257
C          -2.718541  0.521642  1.307309
H          -3.374550  0.235645  0.477425
H          -3.290998  1.207599  1.945366
H          -2.507359 -0.373609  1.896908
C          -1.842727  2.520177  0.056149
H          -0.853233  1.526631  1.676739
H          -2.469715  3.154054  0.697668
H          -2.418561  2.295840 -0.850541
H          -0.957748  3.086937 -0.247994
C          -1.935374 -2.183572 -0.641150
H          -1.166653 -2.928350 -0.410420
H          -2.634531 -2.654357 -1.344961
H          -2.488312 -1.971218  0.276069
C          -0.637804 -1.299920 -2.614929
H          -2.163206 -0.251628 -1.547465
H          -1.344557 -1.819299 -3.276111
H           0.213740 -1.968755 -2.448207
H          -0.263323 -0.408747 -3.127941
C           1.812993  0.217957  1.636664
H           2.434457  0.696784  0.872901
H           2.467538 -0.316622  2.339153
H           1.304095  1.009497  2.198931
C           0.034833 -1.467992  2.132551
H          -0.485968 -0.742845  2.766402
H           0.739351 -2.010465  2.778230
H          -0.696700 -2.193866  1.768279
C           1.634674 -1.827693  0.215240
H           2.184980 -1.361073 -0.609473
H           1.004661 -2.621127 -0.199631
H           2.363676 -2.303630  0.885200
