38
NiP(i-Pr)(t-Bu)2(maximum)
Ni          1.561620 -0.536607 -1.450858
P           0.066526 -0.079194 -0.092165
C          -0.303774  1.817902 -0.037838
C          -1.547576 -1.071052 -0.499761
C           0.583317 -0.667789  1.653065
C          -1.282874 -2.543174 -0.110329
H          -1.232997 -2.696916  0.971268
H          -2.101405 -3.168058 -0.491599
H          -0.349184 -2.905811 -0.555744
C          -1.749156 -1.048965 -2.032233
H          -0.852367 -1.411908 -2.545499
H          -2.592224 -1.703650 -2.294024
H          -1.973916 -0.051430 -2.416134
C          -2.843953 -0.586579  0.179275
H          -2.777661 -0.574746  1.270176
H          -3.136544  0.414287 -0.150995
H          -3.664802 -1.265813 -0.089769
C          -1.067507  2.308812  1.206860
H          -0.473762  2.195174  2.118573
H          -1.285220  3.380391  1.096981
H          -2.021534  1.794918  1.352524
C          -1.081371  2.222614 -1.307229
H          -1.126965  3.318615 -1.363174
H          -0.582135  1.861864 -2.212870
H          -2.111229  1.855430 -1.308946
C           1.059544  2.545590 -0.100031
H           0.886331  3.629988 -0.148273
H           1.682765  2.349776  0.775648
H           1.624227  2.242366 -0.987813
C          -0.425826 -0.672197  2.815428
H           0.043149 -1.141014  3.691021
H          -0.729287  0.334650  3.113616
H          -1.329803 -1.243531  2.592343
C           1.903218 -0.015199  2.101601
H           0.822401 -1.714008  1.426064
H           2.333279 -0.589709  2.932353
H           1.751320  1.007831  2.462834
H           2.634190  0.009857  1.286878
