41
NiP(n-Bu)3(maximum)
Ni          0.014690 -0.022507 -2.077813
P          -0.002626 -0.009745 -0.034629
C           1.582916 -0.508615  0.825290
H           2.299723  0.306328  0.662534
H           1.399881 -0.560276  1.908696
C          -0.367231  1.627180  0.797207
C          -1.242577 -1.129080  0.809824
H          -0.910332 -2.159662  0.630943
H          -1.189441 -0.960271  1.895556
C          -2.684773 -0.964006  0.310843
C           0.499670  2.792806  0.301070
C           2.186453 -1.825475  0.316987
H          -0.261964  1.503649  1.885285
H          -1.423782  1.851435  0.603143
C           3.521908 -2.174235  0.989782
H           2.325822 -1.753434 -0.770058
H           1.478165 -2.650307  0.479170
C           4.126846 -3.484550  0.474445
H           5.079931 -3.706670  0.968053
H           4.313289 -3.435913 -0.605413
H           3.452629 -4.330890  0.655431
H           3.376695 -2.239526  2.077697
H           4.233423 -1.352316  0.826083
C           0.142205  4.131086  0.963836
C           1.006370  5.294809  0.466553
H           0.895460  5.435797 -0.615574
H           2.069298  5.113556  0.668856
H           0.729919  6.235867  0.955749
H           0.389903  2.876388 -0.788491
H           1.561543  2.575588  0.484490
H          -0.917803  4.354433  0.776618
H           0.245692  4.036825  2.054390
C          -3.665730 -1.938498  0.978886
C          -5.107574 -1.765763  0.489391
H          -5.784192 -2.474763  0.980138
H          -5.180655 -1.928749 -0.592876
H          -5.477384 -0.753933  0.696813
H          -3.027026  0.065246  0.488769
H          -2.702097 -1.107194 -0.777947
H          -3.334484 -2.969577  0.790288
H          -3.630041 -1.801459  2.069244
