23
NiPEt3(maximum)
Ni         -1.175882  0.723297  1.027525
P           0.298744 -0.146345 -0.087334
C           1.471940 -1.297284  0.809849
H           2.259315 -1.615531  0.111997
H           0.895794 -2.192856  1.071060
C           1.503740  1.001595 -0.944745
C          -0.249434 -1.224991 -1.516363
H          -0.688781 -0.554167 -2.264041
H           0.638151 -1.680697 -1.977842
C          -1.272140 -2.299281 -1.128593
H          -2.155098 -1.842593 -0.668889
H          -0.857856 -3.016754 -0.411256
H          -1.595546 -2.864969 -2.010596
C           0.833410  2.097761 -1.780901
H           0.152993  2.692757 -1.162483
H           1.583703  2.769965 -2.214088
H           0.249953  1.678851 -2.608548
C           2.084698 -0.692962  2.078823
H           2.698449  0.187128  1.855471
H           1.299071 -0.381421  2.775353
H           2.727029 -1.422654  2.586212
H           2.113056  1.461055 -0.157613
H           2.182270  0.399395 -1.565323
