17
NiPMe2Et(maximum)
Ni          1.232272  1.069090 -0.619884
P          -0.592751  0.310987 -0.112002
C          -1.693252  1.391271  0.927270
H          -1.882262  2.332366  0.402074
H          -2.652285  0.905042  1.145671
H          -1.189530  1.627232  1.869602
C          -1.739332 -0.111751 -1.514507
H          -2.694178 -0.514246 -1.153164
H          -1.932884  0.788807 -2.105280
H          -1.266884 -0.847109 -2.172102
C          -0.606003 -1.265340  0.891147
C           0.166582 -2.418458  0.240700
H           0.172891 -3.300138  0.892365
H          -1.649091 -1.554880  1.082701
H          -0.158105 -1.017060  1.861231
H          -0.280299 -2.716655 -0.714495
H           1.204038 -2.125838  0.046660
