86
FEWKOI
Au      8.050351   19.509887    0.282229
Au      8.166330   16.543490    0.263654
P       5.728260   17.832639   -1.305286
P      10.555185   18.069796    1.796331
C       6.151816   19.435079   -0.654147
H       5.475675   19.698540   -0.009501
H       6.135070   20.079421   -1.377652
C       6.132019   16.513651   -0.207281
H       5.907822   15.666662   -0.622319
H       5.609548   16.596772    0.606484
C      10.189215   16.725346    0.710520
H      10.495415   15.900242    1.119540
H      10.682851   16.847186   -0.115596
C       9.949185   19.641933    1.220568
H      10.587365   20.014188    0.590648
H       9.887694   20.249871    1.973051
C       7.096665   19.527879    2.043675
C       6.460108   19.535665    3.068522
C       9.009591   19.579225   -1.473454
C       9.655550   19.652665   -2.491175
C       5.805766   19.492947    4.352588
C       4.637381   20.194528    4.625585
H       4.231808   20.689674    3.952436
C       4.073798   20.163594    5.884315
H       3.302011   20.651796    6.056918
C       4.650136   19.408354    6.891426
H       4.274549   19.395517    7.741770
C       5.787606   18.674788    6.622230
H       6.171593   18.151864    7.288887
C       6.358824   18.715401    5.367458
H       7.124131   18.214994    5.197073
C      10.313618   19.722529   -3.769857
C      10.303405   18.609133   -4.614342
H       9.923646   17.813069   -4.318226
C      10.846285   18.674577   -5.877981
H      10.832947   17.920389   -6.422708
C      11.411553   19.842265   -6.345116
H      11.763755   19.885824   -7.204961
C      11.447587   20.950610   -5.509024
H      11.839725   21.739730   -5.806723
C      10.904495   20.893372   -4.238417
H      10.935403   21.645036   -3.691157
C       3.948511   17.834954   -1.688336
C       3.344587   18.935513   -2.305112
H       3.848262   19.692227   -2.505109
C       2.002029   18.898898   -2.615955
H       1.606834   19.633306   -3.026084
C       1.232600   17.778558   -2.324590
H       0.327560   17.760461   -2.539947
C       1.830417   16.691256   -1.713356
H       1.324428   15.936015   -1.513834
C       3.172105   16.722821   -1.398237
H       3.563038   15.986519   -0.984942
C       6.496385   17.574018   -2.910329
C       6.511013   18.620496   -3.835414
H       6.190966   19.458647   -3.589812
C       6.997103   18.418482   -5.110297
H       7.017086   19.121956   -5.718047
C       7.456906   17.164517   -5.485746
H       7.771396   17.026053   -6.349867
C       7.447189   16.119722   -4.578871
H       7.757771   15.279468   -4.831283
C       6.972796   16.326367   -3.290371
H       6.975044   15.626680   -2.679295
C      12.363867   18.152496    2.009947
C      13.148169   18.964763    1.212967
H      12.747042   19.525985    0.589065
C      14.526113   18.950243    1.338064
H      15.045597   19.502838    0.799671
C      15.131347   18.117774    2.256499
H      16.057103   18.111882    2.340425
C      14.359843   17.293302    3.049836
H      14.766281   16.720927    3.659487
C      12.980204   17.318974    2.938991
H      12.461759   16.775639    3.490051
C       9.946774   17.755200    3.466140
C      10.225253   18.696462    4.461692
H      10.616669   19.509151    4.232717
C       9.923080   18.430687    5.780754
H      10.115964   19.060931    6.438543
C       9.333062   17.223438    6.126592
H       9.139592   17.038679    7.018107
C       9.033083   16.293960    5.147826
H       8.624305   15.489900    5.379176
C       9.343153   16.560157    3.819579
H       9.142616   15.931807    3.163849
