77
ROHXUH
Cu      2.169099    3.763146    4.827462
Fe     -0.806823    7.506091    5.638099
Fe      5.884202    1.232285    2.703668
O       1.413823    1.414097    5.325056
O       1.971582    3.247913    7.379172
N       0.523460    3.677438    3.750427
N       3.974377    4.175608    5.456879
C      -0.542704    4.593365    4.313933
C      -0.002554    2.290798    3.675100
C       0.045970    1.563156    4.965803
C       1.618877    0.951231    6.653423
C       1.307152    2.018178    7.683378
C       3.344355    3.269487    7.728285
C       4.013325    4.361931    6.944592
C       4.933437    3.063551    5.080243
C       0.860909    4.140304    2.374256
C       4.452413    5.430840    4.816597
C      -1.640036    8.406132    7.287910
C      -2.255533    7.164629    7.054685
C      -2.829930    7.182281    5.758188
C      -2.568385    8.455164    5.194682
C      -1.842299    9.188690    6.129029
C       0.136407    7.080293    3.870661
C       0.873714    8.057020    4.592064
C       1.234161    7.503934    5.846552
C       0.724320    6.182018    5.917534
C       0.052266    5.915281    4.689120
C       4.917987    2.769356    3.614259
C       5.842914    3.261642    2.632107
C       5.483214    2.710517    1.390657
C       4.342782    1.912268    1.565937
C       3.994408    1.953455    2.923276
C       5.980659   -0.676648    3.385380
C       6.834902    0.137291    4.085054
C       7.755565    0.649190    3.128977
C       7.371512    0.151020    1.893321
C       6.328403   -0.651152    2.048321
H      -0.933854    4.177569    5.084588
H      -1.226379    4.726733    3.644679
H      -0.921157    2.331986    3.379585
H       0.514979    1.808319    3.023230
H      -0.422651    2.059365    5.636505
H      -0.357172    0.696262    4.862952
H       2.534188    0.674687    6.721507
H       1.038079    0.200053    6.785245
H       1.621092    1.716138    8.545295
H       0.368986    2.179004    7.721042
H       3.437064    3.459733    8.671324
H       3.751150    2.433973    7.528378
H       4.932874    4.412925    7.209685
H       3.572042    5.193522    7.143050
H       5.812787    3.326365    5.342439
H       4.668658    2.277069    5.562627
H       1.546933    3.565643    2.004863
H       1.195950    5.038580    2.409023
H       0.083937    4.103040    1.817994
H       4.447187    5.321007    3.873558
H       5.360431    5.595589    5.119355
H       3.890361    6.146714    5.086037
H      -1.177746    8.688559    8.080294
H      -2.267624    6.423258    7.665995
H      -3.307198    6.468367    5.336645
H      -2.836055    8.745437    4.325522
H      -1.543135   10.088927    6.021833
H      -0.206651    7.186203    2.982669
H       1.094700    8.941567    4.296550
H       1.736032    7.939342    6.550572
H       0.798098    5.579898    6.654871
H       6.575907    3.867684    2.788556
H       5.934961    2.859575    0.559160
H       3.903681    1.406252    0.879301
H       3.237266    1.508240    3.321641
H       5.254526   -1.204238    3.748979
H       6.810676    0.315769    5.049822
H       8.530687    1.216006    3.152155
H       7.747306    0.311847    1.024161
H       5.852826   -1.133631    1.350096
