62
WEZNOF
Cu      5.188719    8.317722    5.203527
P       6.068015    8.147164    3.196765
O       5.627266    6.684146    6.544418
N       3.192777    8.268881    5.738709
N       3.962520    5.182028    6.251276
H       3.688275    4.540445    6.525773
N       5.810191    9.936134    6.259735
C       2.601874    9.338293    6.303758
H       3.062539   10.169004    6.290983
C       1.357970    9.286078    6.900400
H       0.981013   10.062773    7.297471
C       0.667434    8.087601    6.914212
H      -0.188792    8.024023    7.319914
C       1.252343    6.991328    6.327237
H       0.791660    6.161072    6.304794
C       2.522817    7.099064    5.764433
C       3.244784    5.901787    5.210260
H       2.590734    5.293914    4.782114
H       3.884953    6.198688    4.516249
C       5.075147    5.612178    6.849990
C       5.655387    4.722601    7.903436
H       6.049296    5.271935    8.612984
H       6.350174    4.156090    7.506365
H       4.948861    4.158854    8.279790
C       7.201073    6.743488    2.888431
C       7.040502    5.569641    3.625947
H       6.327848    5.496632    4.248658
C       7.918593    4.505974    3.452790
H       7.800019    3.707152    3.953444
C       8.964626    4.609746    2.553338
H       9.571868    3.887071    2.446302
C       9.125436    5.762501    1.814441
H       9.836675    5.829552    1.189486
C       8.250507    6.825864    1.981901
H       8.369889    7.617127    1.470888
C       7.087966    9.589833    2.704570
C       8.078323   10.009559    3.589175
H       8.223474    9.528317    4.395401
C       8.857187   11.129249    3.302593
H       9.533775   11.406819    3.908558
C       8.642174   11.833920    2.132098
H       9.164327   12.603610    1.938741
C       7.661810   11.418163    1.234372
H       7.521211   11.896978    0.426420
C       6.888589   10.298750    1.526133
H       6.218799   10.017308    0.913263
C       4.843670    8.092261    1.840510
C       5.085906    7.469017    0.621502
H       5.874503    6.953452    0.500655
C       4.176553    7.600353   -0.417788
H       4.351837    7.184412   -1.253363
C       3.022401    8.330034   -0.245148
H       2.402607    8.413310   -0.959876
C       2.765435    8.942483    0.968508
H       1.971171    9.449689    1.085902
C       3.666357    8.814788    2.010387
H       3.479844    9.222693    2.848552
C       6.162825   10.940196    6.650591
C       6.626087   12.240571    7.145548
H       7.082111   12.119499    8.005293
H       5.858545   12.836614    7.264670
H       7.248139   12.633377    6.498150
