64
XOYZEQ
Cu     -4.738781    0.205591   12.141046
S      -6.822904    2.386436   10.687013
P      -3.356010   -1.276465   11.432147
O      -5.981676    1.234533   10.444896
O      -6.222692    3.649335   10.357634
O      -8.178025    2.216240   10.261497
N      -4.548893    2.057144   12.879376
N      -5.669023    2.777392   13.144122
N      -6.559884    0.035766   13.027279
N      -7.405006    1.096404   13.008052
N      -8.267074    3.390342   14.328824
N      -7.930057    3.378009   12.999178
C      -6.961399    2.413568   12.567301
C      -3.560023    2.752726   13.405910
C      -4.016294    3.913261   13.985689
C      -5.356985    3.913261   13.794895
C      -7.325798   -1.018706   13.287588
C      -8.659174   -0.652416   13.397036
C      -8.686429    0.688181   13.204763
C      -8.439151    4.448513   12.342489
C      -9.143933    5.160127   13.252091
C      -9.015081    4.470713   14.448625
C      -4.065290   -2.947587   11.296816
C      -5.436406   -3.049951   11.119333
C      -6.046055   -4.294351   11.098627
C      -5.307110   -5.432686   11.224344
C      -3.965147   -5.342656   11.398869
C      -3.337434   -4.105656   11.440282
C      -2.636259   -0.906475    9.801519
C      -2.279080    0.403289    9.551563
C      -1.706153    0.756013    8.337281
C      -1.500409   -0.192395    7.371476
C      -1.865650   -1.495993    7.602204
C      -2.429059   -1.859816    8.822402
C      -1.877977   -1.477493   12.482997
C      -0.652776   -1.889416   11.996397
C       0.453072   -1.963414   12.833527
C       0.334503   -1.621789   14.145424
C      -0.863186   -1.224667   14.645336
C      -1.988970   -1.140802   13.818559
H      -2.638018    2.481400   13.386683
H      -3.492872    4.584176   14.432356
H      -5.971701    4.597742   14.071473
H      -6.997990   -1.916548   13.385204
H      -9.406721   -1.228367   13.573041
H      -9.466891    1.246866   13.207721
H      -8.321816    4.659407   11.413660
H      -9.630585    5.972872   13.101231
H      -9.423330    4.745738   15.272444
H      -5.965359   -2.256939   11.011364
H      -6.999359   -4.354782   10.995095
H      -5.733193   -6.292297   11.188847
H      -3.443033   -6.141834   11.495006
H      -2.387896   -4.057557   11.568958
H      -2.427733    1.075438   10.223042
H      -1.453395    1.667422    8.173109
H      -1.102232    0.053032    6.532867
H      -1.730603   -2.159508    6.920372
H      -2.673524   -2.773692    8.985095
H      -0.565751   -2.127442   11.070525
H       1.299012   -2.254472   12.487434
H       1.101527   -1.661255   14.720766
H      -0.940023   -0.998973   15.575645
H      -2.830452   -0.850977   14.175005
