14
PdNMe3
Pd          1.230719 -0.001499 -0.000228
N          -0.960467  0.000017  0.000134
C          -1.457103 -1.351171  0.332647
C          -1.456686  0.387769 -1.336324
C          -1.457081  0.963669  1.003741
H          -1.086464  0.682647  1.991317
H          -2.562663  0.979376  1.020534
H          -1.087122  1.961912  0.762271
H          -1.087415 -1.641420  1.317929
H          -1.086199 -2.065701 -0.404588
H          -2.562680 -1.374161  0.337660
H          -1.086605 -0.320130 -2.080327
H          -1.085857  1.383702 -1.585855
H          -2.562224  0.394866 -1.358748
