35
PdP(p-FPh)3
Pd         -0.017601  0.003794  2.811804
C           1.384655 -0.938254 -0.191013
C           1.256471 -1.665962 -1.384856
C           2.345063 -2.349912 -1.928819
C           3.566783 -2.295005 -1.268305
C           3.731737 -1.587062 -0.081936
C           2.633021 -0.918691  0.453915
C          -1.508013 -0.732932 -0.206164
C          -2.063555 -0.253233 -1.402765
C          -3.196864 -0.849709 -1.958066
C          -3.767663 -1.936291 -1.305804
C          -3.247330 -2.438268 -0.117029
C          -2.122303 -1.824983  0.430066
C           0.117074  1.669726 -0.201427
C           0.801031  1.909615 -1.403939
C           0.855928  3.190667 -1.955636
C           0.215137  4.231441 -1.293662
C          -0.469584  4.033458 -0.098805
C          -0.506470  2.750862  0.444216
H           0.300062 -1.709964 -1.896240
H           2.256543 -2.921000 -2.847378
F           4.621318 -2.954103 -1.788216
H           4.699830 -1.577827  0.408137
H           2.734971 -0.381311  1.393315
H          -1.617688  0.598055 -1.907205
H          -3.639176 -0.483383 -2.878847
F          -4.862959 -2.515747 -1.836230
H          -3.728890 -3.281916  0.366480
H          -1.716567 -2.186003  1.371694
H           1.304899  1.095956 -1.916025
H           1.387229  3.389080 -2.880868
F           0.265935  5.471059 -1.820432
H          -0.947881  4.874663  0.392155
H          -1.014648  2.580912  1.390028
P          -0.006328  0.000782  0.587847
