44
PdP(p-MePh)3
Pd         -0.021320 -0.023556 -2.878119
P          -0.017812 -0.002708 -0.651556
C          -0.311337  1.653388  0.118694
C          -1.045020  1.843080  1.299367
C          -1.221595  3.122119  1.829343
C          -0.670385  4.249515  1.207393
C           0.056241  4.056499  0.024231
C           0.227541  2.783602 -0.515994
C          -1.293300 -1.078258  0.147126
C          -1.091933 -1.746914  1.364395
C          -2.102005 -2.533198  1.919401
C          -3.341981 -2.679352  1.283622
C          -3.539258 -2.009406  0.068544
C          -2.531252 -1.229749 -0.495946
C           1.560213 -0.562304  0.135308
C           2.064623 -0.028328  1.330877
C           3.259000 -0.503922  1.873585
C           3.984960 -1.527014  1.249761
C           3.480914 -2.052790  0.052173
C           2.293885 -1.575697 -0.500329
H          -1.491986  0.992936  1.805649
H          -1.802342  3.244728  2.741368
C          -0.840397  5.628153  1.802699
H           0.482403  4.916361 -0.488196
H           0.771089  2.658289 -1.449479
H          -0.141757 -1.659039  1.882587
H          -1.921891 -3.043186  2.863690
C          -4.418322 -3.559255  1.873735
H          -4.491891 -2.107010 -0.447707
H          -2.695437 -0.736191 -1.450958
H           1.531016  0.769898  1.838035
H           3.634864 -0.067762  2.796969
C           5.261813 -2.056587  1.857699
H           4.032318 -2.837141 -0.461908
H           1.933175 -1.977152 -1.444395
H           5.911505 -2.504830  1.098719
H           5.052394 -2.832483  2.606613
H           5.825779 -1.264600  2.362516
H          -0.780656  6.406724  1.034886
H          -0.056371  5.840103  2.542416
H          -1.803571  5.728723  2.314628
H          -5.412961 -3.269530  1.518751
H          -4.420711 -3.511409  2.968373
H          -4.266809 -4.611338  1.596786
