41
PdP(t-Bu)3
Pd          2.056476  0.108011 -0.002711
P          -0.198775  0.007253  0.004469
C          -0.811699 -1.762309  0.559636
C          -0.950481  1.325879  1.234389
C          -0.908975  0.366040 -1.779421
C          -0.630483 -0.851130 -2.688537
H          -0.850545 -0.569565 -3.726815
H           0.420909 -1.153419 -2.641539
H          -1.255740 -1.714871 -2.451939
C          -0.098256  1.533398 -2.392937
H           0.974996  1.316973 -2.361280
H          -0.398768  1.657113 -3.442585
H          -0.262637  2.487782 -1.891984
C          -2.412587  0.702185 -1.858714
H          -2.660982  1.633087 -1.342927
H          -2.692480  0.837053 -2.912759
H          -3.047611 -0.090560 -1.454195
C          -0.790413  2.735765  0.625143
H          -1.465725  2.920430 -0.213495
H          -1.027473  3.478824  1.398161
H           0.238586  2.914500  0.296410
C          -0.085415  1.329158  2.517966
H           0.969499  1.492081  2.272636
H          -0.422568  2.147978  3.168614
H          -0.157879  0.404732  3.091232
C          -2.429336  1.125016  1.625449
H          -3.098574  1.108445  0.761558
H          -2.590392  0.207610  2.197517
H          -2.745117  1.959889  2.266350
C          -2.285056 -2.096484  0.250185
H          -2.488757 -2.134170 -0.822820
H          -2.518103 -3.090948  0.655329
H          -2.983585 -1.389175  0.704256
C          -0.579088 -1.923629  2.077881
H          -0.736781 -2.976758  2.346136
H           0.446616 -1.659384  2.355574
H          -1.270321 -1.332725  2.683198
C           0.099184 -2.817466 -0.112829
H          -0.153075 -3.808399  0.289238
H          -0.017656 -2.865054 -1.195692
H           1.153121 -2.611773  0.103048
