44
PdP(m-MePh)3(minimum)
Pd          1.600962  1.665216 -1.876049
P           0.300200  0.444355 -0.549485
C          -1.101871  1.369501  0.231002
C          -2.383212  0.828184  0.393481
C          -3.420172  1.563459  0.989293
C          -3.146141  2.860477  1.434417
C          -1.872188  3.414627  1.280361
C          -0.856632  2.680370  0.673959
C          -0.538399 -0.983940 -1.378679
C          -0.755862 -2.217012 -0.751110
C          -1.396844 -3.275035 -1.414484
C          -1.829379 -3.072482 -2.728962
C          -1.620231 -1.847864 -3.369128
C          -0.970885 -0.810946 -2.704313
C           1.148933 -0.337343  0.898747
C           0.526644 -0.520738  2.143617
C           1.194695 -1.126914  3.214825
C           2.513418 -1.560453  3.018946
C           3.146202 -1.383940  1.788742
C           2.472869 -0.767755  0.733364
H          -2.588380 -0.180994  0.046461
H          -3.937367  3.445557  1.897812
H           0.127433  3.117923  0.526457
H          -0.416785 -2.367953  0.270298
H          -2.326146 -3.881735 -3.259436
H          -0.494975 -0.180566  2.288689
H           3.050012 -2.032119  3.839670
H           2.971054 -0.605160 -0.219108
H           4.172030 -1.717363  1.654133
C           0.513804 -1.306953  4.553007
H          -0.515572 -0.935855  4.530120
H           1.044626 -0.767030  5.347141
H           0.482938 -2.363175  4.848607
H          -1.677288  4.427265  1.624080
C          -4.797676  0.956961  1.136116
H          -5.485678  1.644749  1.637953
H          -4.767868  0.028575  1.720036
H          -5.229367  0.706518  0.159047
C          -1.606193 -4.598600 -0.713451
H          -0.780852  0.133790 -3.207392
H          -1.954387 -1.708692 -4.394077
H          -2.119411 -5.316953 -1.360619
H          -2.207753 -4.479975  0.196445
H          -0.651073 -5.044880 -0.409993
