44
PdP(o-MePh)3(minimum)
Pd          0.359213 -0.661730 -2.526939
P          -0.013084 -0.022682 -0.398439
C           1.527803 -0.251592  0.628717
C           2.085272  0.599709  1.615411
C           3.291773  0.208410  2.219675
C           3.938967 -0.982503  1.899732
C           3.386602 -1.821290  0.933007
C           2.207182 -1.440719  0.298780
C          -0.497391  1.777545 -0.335841
C          -1.505485  2.412094  0.431595
C          -1.693515  3.794252  0.263238
C          -0.918525  4.555117 -0.608404
C           0.075766  3.930392 -1.359830
C           0.261434  2.556678 -1.231399
C          -1.385175 -1.035557  0.358229
C          -1.474142 -1.608072  1.651868
C          -2.611537 -2.373657  1.958993
C          -3.650315 -2.570065  1.052639
C          -3.563558 -2.003132 -0.217922
C          -2.432760 -1.264670 -0.555669
C           1.472593  1.902790  2.080263
H           3.726634  0.861879  2.972402
H           4.868334 -1.246688  2.397403
H           3.875220 -2.752194  0.658545
H           1.795513 -2.067609 -0.489041
C          -2.397193  1.712370  1.433832
H          -2.470223  4.282926  0.847064
H          -1.095616  5.623315 -0.702040
H           0.689257  4.499063 -2.053312
H           1.004936  2.057092 -1.848353
C          -0.436310 -1.450713  2.741652
H          -2.679734 -2.819992  2.948343
H          -4.513802 -3.166012  1.336173
H          -4.355731 -2.148076 -0.947388
H          -2.338982 -0.860100 -1.560953
H          -0.198996 -0.401790  2.943616
H           0.507144 -1.944126  2.488878
H          -0.804543 -1.889595  3.674304
H          -1.827827  1.125619  2.160407
H          -3.096382  1.021963  0.951607
H          -2.984223  2.449383  1.990843
H           0.431050  1.785098  2.394572
H           1.479926  2.666046  1.296002
H           2.032658  2.294827  2.935073
