35
PdP(i-Pr)2(t-Bu)(minimum)
Pd          1.616277 -0.180716 -0.935858
P          -0.403691  0.239267 -0.063571
C          -1.637003  1.081764 -1.253096
C          -1.289895 -1.361228  0.547500
C          -0.427808  1.570981  1.323822
C          -0.514092  1.114434  2.787966
H          -1.430391  0.563648  3.014779
H          -0.501441  2.002255  3.433600
H           0.343494  0.496395  3.072443
C           0.815073  2.470853  1.173045
H          -1.322384  2.175321  1.120890
H           0.739149  3.327096  1.857255
H           0.947232  2.853383  0.158665
H           1.720365  1.906575  1.422751
C          -1.101232  2.455488 -1.697781
H          -1.805698  2.910381 -2.405402
H          -0.133889  2.348798 -2.202695
H          -0.977074  3.155824 -0.868073
C          -1.970184  0.254799 -2.505674
H          -2.562775  1.244763 -0.683180
H          -1.057386 -0.108202 -2.992501
H          -2.509973  0.881417 -3.227048
H          -2.608867 -0.604279 -2.287781
C          -0.524577 -1.953125  1.753049
H           0.552370 -1.993467  1.552202
H          -0.872014 -2.980799  1.923280
H          -0.682543 -1.401728  2.679576
C          -2.769916 -1.137352  0.910540
H          -2.899620 -0.376941  1.688338
H          -3.205124 -2.071514  1.290911
H          -3.364150 -0.834197  0.041927
C          -1.179599 -2.421006 -0.573507
H          -0.130688 -2.593057 -0.838270
H          -1.713229 -2.149278 -1.484687
H          -1.605243 -3.366623 -0.211291
