29
PdPEt(i-Pr)2(minimum)
Pd          1.774568  0.255320 -0.987329
P          -0.378285  0.037123 -0.410191
C          -1.174512  1.655501  0.173742
C          -1.403936 -0.527584 -1.884678
C          -0.692887 -1.223706  0.973627
C           0.387388 -2.319106  0.937057
H           1.391822 -1.886063  0.958640
H           0.270891 -2.995240  1.794407
H           0.308844 -2.923080  0.024484
C          -2.088214 -1.869754  1.028838
H          -0.541674 -0.637031  1.891160
H          -2.279664 -2.475539  0.135665
H          -2.896894 -1.141938  1.126122
H          -2.146744 -2.544730  1.892674
C          -2.497264  1.555903  0.953114
H          -2.871854  2.564577  1.171104
H          -2.354840  1.052234  1.915905
H          -3.279446  1.026474  0.404343
C          -0.154266  2.481422  0.977424
H          -1.364611  2.187885 -0.769446
H           0.102308  1.986345  1.922677
H          -0.574383  3.465449  1.223343
H           0.773570  2.620904  0.414551
C          -2.920494 -0.297013 -1.960866
H          -0.923340 -0.039614 -2.739001
H          -1.173648 -1.595218 -1.995943
H          -3.467746 -0.801630 -1.160516
H          -3.302399 -0.683804 -2.914002
H          -3.170344  0.768450 -1.923868
