26
PdPEt2(i-Pr)(minimum)
Pd          2.042629  0.058871  0.298361
P          -0.172363  0.187793  0.089144
C          -0.708842  1.677650 -0.924160
H           0.055172  2.434951 -0.720471
H          -0.554330  1.382291 -1.970563
C          -1.032208  0.346915  1.751761
C          -0.906433 -1.304644 -0.810355
C          -2.541816  0.112008  1.919478
C          -2.098787  2.304315 -0.739920
H          -2.911754  1.603817 -0.950858
H          -2.235577  2.683393  0.278281
H          -2.212498  3.157266 -1.420618
H          -0.764644  1.355013  2.095119
H          -0.482599 -0.333897  2.410475
C          -2.344700 -1.192457 -1.343065
H          -3.082418 -1.095308 -0.541027
H          -2.465827 -0.342342 -2.021814
H          -2.595612 -2.098642 -1.910351
C          -0.705254 -2.578891  0.026489
H          -0.238976 -1.380035 -1.679568
H          -0.958713 -3.465825 -0.567592
H           0.335399 -2.672441  0.355627
H          -1.345281 -2.587707  0.916813
H          -2.833330  0.322479  2.956243
H          -3.144363  0.753005  1.271525
H          -2.814918 -0.927004  1.712776
