20
PdPMeEt2(minimum)
Pd         -1.451569 -0.075543 -1.564435
P           0.542566  0.000164 -0.593662
C           0.824652  1.548675  0.420333
H           0.677122  2.372503 -0.289233
H          -0.023996  1.602695  1.112416
C           0.892069 -1.426238  0.576515
C           1.998187 -0.004809 -1.749673
C           2.347531 -1.822352  0.864668
H           2.373692 -2.660607  1.571633
H           2.929228 -1.005247  1.300731
H           2.861681 -2.148936 -0.045419
C           2.144156  1.733880  1.182034
H           2.178252  2.730781  1.638390
H           3.017149  1.646584  0.526096
H           2.253811  1.003556  1.990088
H           0.357920 -2.282566  0.151768
H           0.363992 -1.180694  1.507349
H           2.964570  0.046364 -1.236521
H           1.905699  0.851009 -2.424995
H           1.967576 -0.913236 -2.358696
