20
PdPMe2(i-Pr)
Pd          1.330255  0.276392 -1.490840
P          -0.544387  0.639649 -0.359197
C          -0.420542  1.879599  1.019328
H          -0.031461  2.817136  0.611297
H          -1.383704  2.078212  1.504092
H           0.292451  1.521008  1.768076
C          -1.971384  1.332048 -1.327246
H          -2.841257  1.551655 -0.697279
H          -1.644388  2.255386 -1.814472
H          -2.262791  0.627967 -2.112149
C          -1.275921 -0.869490  0.505688
C          -2.603102 -0.627420  1.241434
H          -3.415378 -0.398331  0.542044
H          -2.895429 -1.531116  1.791167
H          -2.540460  0.189512  1.968036
C          -1.391867 -2.047609 -0.474150
H          -0.434616 -2.244452 -0.967660
H          -2.138072 -1.848737 -1.253685
H          -1.705825 -2.955525  0.056079
H          -0.506316 -1.123779  1.248056
