37
PdPh2(i-Bu)(minimum)
Pd          0.105121 -2.510390 -0.857725
C          -1.400618  0.330472  0.372281
C          -1.379355  1.484782  1.172477
C          -2.532089  1.916141  1.831228
C          -3.727330  1.206426  1.695563
C          -3.759516  0.052990  0.909639
C          -2.602937 -0.386528  0.263978
C           1.523223  0.335461  0.347161
C           1.557610  0.224125  1.749189
C           2.697794  0.578103  2.469521
C           3.837440  1.036849  1.804936
C           3.825665  1.130777  0.412925
C           2.682694  0.780466 -0.307985
H          -0.458486  2.045885  1.294070
H          -2.495325  2.809152  2.449916
H          -4.624155  1.544682  2.207815
H          -4.681472 -0.513684  0.809070
H           0.686735 -0.145429  2.282848
H           2.696144  0.489570  3.552886
H           4.727051  1.310096  2.365765
H           4.708529  1.476865 -0.118391
H           2.708446  0.849508 -1.390607
C           0.034468  0.590384 -2.245132
H          -0.642740 -0.034094 -2.838667
C          -0.335733  2.076696 -2.500022
H           1.031346  0.384717 -2.655988
C          -1.844386  2.354620 -2.386156
H          -0.076428  2.224696 -3.560497
C           0.482346  3.103308 -1.704140
H           0.274874  3.047423 -0.631129
H           0.232826  4.118873 -2.034660
H           1.559560  2.963279 -1.841736
H          -2.071525  3.357893 -2.766920
H          -2.425385  1.635600 -2.976273
H          -2.197547  2.303364 -1.352951
H          -2.617144 -1.301756 -0.323271
P           0.056351 -0.301929 -0.581013
