37
PdPPh2(t-Bu)
Pd         -1.814997 -0.859633  1.329811
P          -0.296736 -0.043446 -0.083793
C           0.475172  1.557961  0.452245
C           1.710572  2.017273 -0.036783
C           2.228955  3.244660  0.379326
C           1.522454  4.034194  1.289605
C           0.297729  3.586830  1.787803
C          -0.217577  2.356328  1.375712
C           1.201152 -1.123995 -0.276064
C           1.442218 -1.983377 -1.359505
C           2.551769 -2.833506 -1.371761
C           3.441884 -2.848364 -0.299579
C           3.209596 -2.008046  0.792617
C           2.102434 -1.162835  0.805790
H           2.280862  1.407495 -0.730712
H           3.187731  3.582350 -0.005802
H           1.929308  4.988201  1.614587
H          -0.253325  4.189498  2.505053
H          -1.161224  1.993124  1.775683
H           0.768281 -2.006678 -2.206639
H           2.714840 -3.484730 -2.226695
H           4.303815 -3.509917 -0.310187
H           3.890558 -2.012617  1.639797
H           1.934147 -0.524452  1.668391
C          -0.999893  0.373401 -1.821867
C          -2.004688  1.527601 -1.615774
C          -1.789347 -0.844350 -2.346613
C           0.065451  0.819717 -2.840022
H          -2.777923  1.257588 -0.887660
H          -2.497718  1.748100 -2.571539
H          -1.514768  2.443725 -1.272247
H           0.568281  1.736505 -2.516339
H          -0.419139  1.033640 -3.802243
H           0.830513  0.058559 -3.017930
H          -2.538285 -1.163974 -1.613662
H          -1.156215 -1.707432 -2.570739
H          -2.307573 -0.567694 -3.274426
