37
PdPPh2(n-Bu)(minimum)
Pd          2.470256 -0.843919  0.644706
P           0.401538 -0.196024  0.154309
C          -0.856259 -0.408103  1.497563
C          -2.073863  0.293041  1.534119
C          -3.000917  0.054116  2.549815
C          -2.729273 -0.891712  3.541346
C          -1.522577 -1.592739  3.517019
C          -0.591269 -1.347093  2.506209
C           0.236731  1.581840 -0.321275
C           0.289743  1.991595 -1.663313
C           0.267605  3.346664 -1.999429
C           0.196664  4.318375 -1.000555
C           0.155083  3.924645  0.339199
C           0.179900  2.571663  0.675450
H          -2.294488  1.038350  0.776272
H          -3.935980  0.608175  2.566594
H          -3.451977 -1.075315  4.332087
H          -1.299753 -2.323559  4.290012
H           0.356997  1.254668 -2.458099
H           0.305525  3.640719 -3.045193
H           0.179023  5.372790 -1.262488
H           0.106177  4.672650  1.126338
H           0.154201  2.281777  1.722184
C          -0.347246 -1.138558 -1.283805
C          -1.790728 -0.839374 -1.712413
H          -0.248283 -2.192232 -0.995450
H           0.345741 -1.000920 -2.123693
C          -2.227251 -1.684086 -2.920024
H          -2.469677 -1.034180 -0.873179
H          -1.899386  0.224904 -1.958786
C          -3.675392 -1.414924 -3.343232
H          -1.554369 -1.485342 -3.766388
H          -2.106783 -2.749686 -2.679232
H          -4.374176 -1.641324 -2.528587
H          -3.959564 -2.027733 -4.206338
H          -3.818959 -0.362952 -3.619396
H           0.360220 -1.873800  2.493741
