31
PdPPh2Et(minimum)
Pd          0.152006  2.445835  0.171211
P          -0.042441  0.278394  0.618830
C           1.343532 -0.763117 -0.019999
C           2.462847 -1.059313  0.774774
C           3.552268 -1.754963  0.246820
C           3.546192 -2.163871 -1.087278
C           2.443388 -1.866645 -1.891755
C           1.355962 -1.170238 -1.365495
C          -1.559068 -0.558261 -0.035366
C          -1.659170 -1.949018 -0.212983
C          -2.847036 -2.523183 -0.668711
C          -3.954158 -1.718869 -0.949496
C          -3.866243 -0.336316 -0.779254
C          -2.675374  0.238834 -0.331691
H           2.497034 -0.740554  1.812321
H           4.406264 -1.976222  0.881833
H           4.394209 -2.704869 -1.498261
H           2.429816 -2.174828 -2.934028
H           0.509293 -0.940953 -2.006432
H          -0.803119 -2.585261 -0.010783
H          -2.906719 -3.599867 -0.805704
H          -4.877481 -2.167870 -1.306081
H          -4.720160  0.297118 -1.004725
H          -2.593030  1.317250 -0.217866
C          -0.107729 -0.104133  2.454902
H           0.797602  0.341432  2.884062
H          -0.938078  0.507179  2.826573
C          -0.272035 -1.560182  2.905440
H          -0.279417 -1.614930  4.000927
H          -1.213748 -1.985296  2.545409
H           0.544400 -2.194742  2.545710
