38
PdPPh2Bz(minimum)
Pd          1.882957  2.101824 -1.240065
P           0.370657  0.640117 -0.527486
C          -1.625675 -1.201810 -1.706704
C          -1.390229 -2.527851 -1.308597
C          -2.451809 -3.402596 -1.073204
C          -3.770412 -2.971765 -1.237538
C          -4.018194 -1.658258 -1.640539
C          -2.955429 -0.783977 -1.870709
H          -0.369172 -2.875811 -1.181451
H          -2.246962 -4.425461 -0.767695
H          -4.596135 -3.655541 -1.059777
H          -5.039485 -1.312751 -1.778661
H          -3.156913  0.237743 -2.183420
C          -0.491290 -0.244619 -1.971611
H           0.326263 -0.740946 -2.506152
H          -0.823973  0.574270 -2.617332
H          -3.788105  0.424313  2.287780
C          -3.031880  1.063040  1.838944
C          -3.094135  2.448441  2.007357
H          -3.898482  2.890306  2.589892
C          -2.119033  3.261710  1.428426
H          -2.158642  4.339978  1.558255
C          -1.085538  2.689930  0.683804
H          -0.317407  3.314771  0.233824
C          -1.012217  1.299873  0.503598
C          -2.001318  0.490467  1.092104
H          -1.966515 -0.586836  0.974462
H           1.302798 -2.077941  3.594612
C           1.498894 -1.956128  2.532381
C           2.382101 -2.815833  1.880976
H           2.877984 -3.611927  2.429695
C           2.634986 -2.636822  0.517598
H           3.332725 -3.290980  0.001125
C           2.005005 -1.609554 -0.181990
H           2.241342 -1.461645 -1.233051
C           1.090835 -0.751782  0.457431
C           0.857334 -0.933127  1.828228
H           0.176010 -0.274379  2.355791
