25
PdPPh2Cl
Pd         -0.571163  2.401816 -0.208669
P          -0.081903  0.363794  0.471246
C          -1.277966 -0.968011  0.035830
C          -0.931498 -2.326202 -0.038353
C          -1.892822 -3.277462 -0.377967
C          -3.207602 -2.885435 -0.643715
C          -3.560006 -1.536639 -0.572438
C          -2.598857 -0.582149 -0.237858
C           1.554769 -0.330324 -0.025293
C           2.318957 -1.214207  0.751087
C           3.534158 -1.702606  0.267563
C           3.997396 -1.318555 -0.992498
C           3.244994 -0.434359 -1.768148
C           2.035568  0.064530 -1.283727
H           0.087841 -2.641353  0.160445
H          -1.614739 -4.326337 -0.437316
H          -3.953387 -3.629910 -0.909469
H          -4.580189 -1.226210 -0.781094
H          -2.862896  0.471797 -0.189870
H           1.974278 -1.507950  1.737122
H           4.120945 -2.381611  0.880473
H           4.945510 -1.698340 -1.363564
H           3.604653 -0.121617 -2.744674
H           1.461928  0.774321 -1.875486
Cl         -0.003478  0.110074  2.593870
