41
NiP(t-Bu)3
Ni          1.306949  1.311096 -1.098588
P           0.041310  0.057775 -0.042842
C           1.034076 -0.948176  1.307287
C          -1.350527  1.086156  0.862800
C          -0.823745 -1.219902 -1.243719
C           0.207017 -2.277835 -1.695641
H          -0.232392 -2.865342 -2.512973
H           1.121596 -1.810456 -2.075358
H           0.475611 -2.981232 -0.904009
C          -1.226143 -0.457208 -2.528992
H          -0.359403  0.052476 -2.962807
H          -1.610328 -1.178465 -3.263946
H          -2.003650  0.288528 -2.363412
C          -2.059582 -1.950978 -0.681471
H          -2.890746 -1.271828 -0.475113
H          -2.416975 -2.674054 -1.428045
H          -1.842333 -2.509763  0.232669
C          -2.372431  1.597116 -0.176604
H          -3.011765  0.806129 -0.575314
H          -3.030905  2.327179  0.312930
H          -1.876834  2.103291 -1.011478
C          -0.686218  2.355342  1.449489
H          -0.155469  2.909378  0.668137
H          -1.468445  3.004034  1.868261
H           0.024241  2.140345  2.247612
C          -2.118455  0.355069  1.982731
H          -2.617578 -0.551620  1.630939
H          -1.476519  0.084235  2.824841
H          -2.896701  1.023730  2.376425
C           0.315098 -2.177086  1.898610
H           0.127759 -2.952648  1.151771
H           0.953053 -2.625736  2.672787
H          -0.637889 -1.923128  2.370005
C           1.427738 -0.005150  2.465209
H           2.144106 -0.527819  3.113124
H           1.915076  0.902586  2.094356
H           0.579929  0.282762  3.091135
C           2.369609 -1.399178  0.668327
H           2.990601 -1.873097  1.441505
H           2.241407 -2.121184 -0.137917
H           2.913802 -0.539075  0.264187
