44
NiPBz3(minimum)
Ni          3.769379  0.639306 -0.327183
P           1.752671  0.325876 -0.170442
C          -0.317173  1.619554  1.523028
C          -0.454844  2.987992  1.235551
C          -1.700874  3.614893  1.291097
C          -2.836452  2.884347  1.648378
C          -2.710329  1.527177  1.954065
C          -1.464646  0.900684  1.891021
C          -0.434606  0.539592 -2.173518
C          -0.285810 -0.379625 -3.225884
C          -1.396218 -0.980650 -3.821286
C          -2.683338 -0.663748 -3.381147
C          -2.845829  0.261978 -2.347758
C          -1.733981  0.857098 -1.749670
C           0.183333 -2.085082  0.576981
C           0.431700 -2.497800  1.896906
C          -0.585038 -3.036016  2.687792
C          -1.872946 -3.182425  2.167530
C          -2.129095 -2.791642  0.851087
C          -1.112638 -2.248133  0.064075
H           0.427687  3.570934  0.979653
H          -1.781701  4.675107  1.065490
H          -3.807051  3.370527  1.698617
H          -3.584583  0.951082  2.246144
H          -1.381819 -0.153900  2.133379
H           0.711617 -0.614786 -3.591958
H          -1.255337 -1.687657 -4.634771
H          -3.550364 -1.125091 -3.846323
H          -3.842951  0.526547 -2.005290
H          -1.876411  1.577181 -0.950450
H           1.437314 -2.409166  2.303138
H          -0.367880 -3.349572  3.705633
H          -2.665397 -3.606513  2.778396
H          -3.124289 -2.912272  0.430928
H          -1.325720 -1.952316 -0.957913
C           1.043631  0.969588  1.474797
H           1.802956  1.684060  1.805235
H           1.089419  0.119073  2.162588
C           1.303412 -1.522907 -0.263645
H           2.243444 -2.015667  0.000568
H           1.128345 -1.726112 -1.325117
C           0.780458  1.191275 -1.560656
H           0.529454  2.181302 -1.166236
H           1.542240  1.343555 -2.330628
