17
NiPMe2Et(minimum)
Ni          1.830423 -0.217218  0.017213
P          -0.155243  0.256536  0.030814
C          -0.788438  1.114270  1.554104
H          -0.204724  2.025854  1.713662
H          -1.848412  1.382216  1.476606
H          -0.643844  0.467655  2.425161
C          -0.735537  1.414651 -1.303603
H          -1.798547  1.665428 -1.210740
H          -0.149661  2.337190 -1.250279
H          -0.557522  0.961259 -2.283664
C          -1.311196 -1.205855 -0.145402
C          -2.822623 -0.943022 -0.128012
H          -3.133329 -0.281369 -0.943765
H          -1.034137 -1.899401  0.657782
H          -1.019083 -1.701222 -1.079462
H          -3.372446 -1.884525 -0.245088
H          -3.149045 -0.490767  0.814557
