32
NiPMe(t-Bu)2
Ni          0.065287  2.122846 -0.249067
P           0.011549  0.150129  0.335055
C          -1.591943 -0.766781 -0.201584
C           1.591595 -0.812617 -0.187194
C          -0.012812 -0.097983  2.184172
C           2.744980 -0.231593  0.661731
H           2.670408 -0.515819  1.716545
H           3.701914 -0.616061  0.284393
H           2.770115  0.862616  0.599435
C           1.899225 -0.507224 -1.667792
H           1.974874  0.572887 -1.833527
H           2.856164 -0.969732 -1.946600
H           1.133481 -0.897183 -2.344108
C           1.533609 -2.335708  0.025573
H           1.262784 -2.605344  1.052485
H           0.826682 -2.821351 -0.654217
H           2.523372 -2.768712 -0.174232
C          -1.863359 -2.088750  0.544493
H          -1.962921 -1.939492  1.624646
H          -2.812231 -2.513040  0.188836
H          -1.087400 -2.839256  0.375563
C          -1.571843 -1.021388 -1.720474
H          -2.564098 -1.358327 -2.049841
H          -1.325148 -0.107988 -2.273284
H          -0.855027 -1.799442 -2.002106
C          -2.750240  0.210162  0.103963
H          -3.702500 -0.247876 -0.197615
H          -2.822596  0.448122  1.171262
H          -2.625752  1.152047 -0.440086
H          -0.977782  0.233963  2.577340
H           0.758968  0.526897  2.638705
H           0.149191 -1.139309  2.483287
