20
NiPMeEt2(minimum)
Ni         -1.671638 -0.080780 -1.494885
P           0.166009 -0.001758 -0.598079
C           0.437270  1.552178  0.411565
H           0.290572  2.375351 -0.299121
H          -0.413468  1.604598  1.101500
C           0.510704 -1.422667  0.581266
C           1.624574 -0.005766 -1.752881
C           1.965735 -1.832387  0.851025
H           1.995149 -2.662714  1.567106
H           2.562529 -1.016072  1.268379
H           2.462263 -2.173671 -0.063433
C           1.753802  1.739924  1.177320
H           1.778974  2.730998  1.646655
H           2.628041  1.668587  0.521046
H           1.869608  0.999897  1.975792
H          -0.039871 -2.275550  0.169950
H           0.000230 -1.163759  1.518259
H           2.588684  0.048814 -1.236425
H           1.532914  0.849468 -2.429285
H           1.599681 -0.915177 -2.360847
