14
NiPMe3
Ni         -0.911737  0.000380 -1.492339
P           0.653269 -0.001093 -0.185941
C           2.360235  0.000501 -0.921331
H           2.485878 -0.882484 -1.555362
H           3.136337 -0.002013 -0.145505
H           2.486625  0.886968 -1.550342
C           0.771046  1.434343  0.988869
H           0.843515  2.366926  0.421063
H           1.644193  1.346975  1.647793
H          -0.135095  1.482051  1.600481
C           0.770588 -1.435226  0.990592
H           0.842793 -2.368442  0.423805
H          -0.135537 -1.482060  1.602306
H           1.643776 -1.347394  1.649406
