25
NiPPh2Cl
Ni         -0.312939  2.562170 -0.457581
P          -0.083817  0.720572  0.307811
C          -1.421628 -0.502526 -0.006808
C          -1.213284 -1.889798 -0.035422
C          -2.278605 -2.754252 -0.288847
C          -3.560322 -2.245845 -0.511954
C          -3.775868 -0.866246 -0.485695
C          -2.711602  0.000415 -0.239491
C           1.479147 -0.181333 -0.077220
C           2.117771 -1.079268  0.791245
C           3.283403 -1.735148  0.390823
C           3.823476 -1.504056 -0.876035
C           3.197769 -0.606523 -1.743445
C           2.036887  0.056036 -1.343919
H          -0.221131 -2.295944  0.132870
H          -2.106575 -3.827078 -0.312937
H          -4.387266 -2.922790 -0.709298
H          -4.770379 -0.465010 -0.661200
H          -2.871240  1.075850 -0.227205
H           1.713386 -1.253643  1.782818
H           3.772058 -2.425072  1.073705
H           4.732975 -2.014120 -1.181984
H           3.617756 -0.413251 -2.726880
H           1.559770  0.769792 -2.010990
Cl         -0.048293  0.664384  2.477125
