25
NiPPh2H
Ni          0.002745 -2.509219  1.118043
C           1.471340  0.183755 -0.189066
C           1.489124  1.380720 -0.921660
C           2.644609  2.160228 -0.973211
C           3.796406  1.753978 -0.293347
C           3.787570  0.566588  0.439451
C           2.629640 -0.213055  0.492238
C          -1.426059  0.286472  0.063845
C          -1.761562  0.770722  1.338506
C          -2.813212  1.671432  1.500901
C          -3.556695  2.089414  0.393408
C          -3.241521  1.603706 -0.876213
C          -2.180601  0.709611 -1.040511
H           0.595691  1.711100 -1.444984
H           2.646647  3.086080 -1.542769
H           4.695354  2.363526 -0.333923
H           4.679356  0.246884  0.972201
H           2.612763 -1.138373  1.062530
H          -1.199269  0.430207  2.204408
H          -3.059348  2.041315  2.492827
H          -4.381218  2.785629  0.521597
H          -3.819776  1.919753 -1.740631
H          -1.943975  0.336255 -2.034118
P          -0.027810 -0.904389 -0.119904
H          -0.192939 -1.155566 -1.513770
