38
NiPPh2Bz(minimum)
Ni          1.426894  2.513155 -1.396833
P           0.417758  0.904626 -0.652237
C          -1.101942 -1.425448 -1.660100
C          -0.548449 -2.630004 -1.196048
C          -1.365433 -3.711570 -0.863708
C          -2.752778 -3.613577 -0.994125
C          -3.315614 -2.424765 -1.462323
C          -2.497044 -1.343312 -1.789784
H           0.529158 -2.719721 -1.093308
H          -0.915583 -4.634938 -0.507817
H          -3.387900 -4.457848 -0.739496
H          -4.393267 -2.337953 -1.574741
H          -2.943805 -0.420764 -2.152531
C          -0.234044 -0.247046 -2.020270
H           0.667844 -0.569467 -2.552458
H          -0.765266  0.428119 -2.698833
H          -3.451788 -0.181927  2.372289
C          -2.902322  0.596487  1.849359
C          -3.316826  1.927488  1.938591
H          -4.188611  2.187631  2.533445
C          -2.606208  2.921523  1.264107
H          -2.920522  3.959774  1.331186
C          -1.484426  2.583660  0.505105
H          -0.920257  3.352267 -0.017367
C          -1.058184  1.249669  0.403833
C          -1.783657  0.256731  1.086825
H          -1.475950 -0.781769  1.029228
H           2.183557 -1.177259  3.564033
C           2.291469 -1.098713  2.485217
C           3.325597 -1.771197  1.834898
H           4.027196 -2.377399  2.401579
C           3.459778 -1.649992  0.448803
H           4.269416 -2.158770 -0.068066
C           2.563000 -0.865868 -0.275002
H           2.701183 -0.756810 -1.347990
C           1.500093 -0.202778  0.365326
C           1.386151 -0.320886  1.758158
H           0.589993  0.196094  2.283331
