37
NiPPh2(n-Bu)(minimum)
Ni         -0.786100 -2.637968 -0.699936
P          -0.125882 -0.778272 -0.187104
C           0.773472  0.164051 -1.506100
C           0.921493  1.561629 -1.500596
C           1.648599  2.203288 -2.504881
C           2.242681  1.459659 -3.527263
C           2.101415  0.071003 -3.544871
C           1.367684 -0.569673 -2.544796
C          -1.486257  0.366431  0.327975
C          -1.875954  0.479059  1.672461
C          -2.975878  1.257896  2.037086
C          -3.711408  1.935344  1.063563
C          -3.341359  1.823797 -0.278698
C          -2.243307  1.044607 -0.642891
H           0.456914  2.154015 -0.718135
H           1.750038  3.285489 -2.488645
H           2.807267  1.961523 -4.308733
H           2.553956 -0.513864 -4.341434
H          -1.327187 -0.048985  2.446867
H          -3.256925  1.333397  3.084421
H          -4.567750  2.541160  1.347198
H          -3.909962  2.342723 -1.046155
H          -1.970946  0.964587 -1.691513
C           1.077140 -0.754520  1.254693
C           1.650049  0.587726  1.730280
H           1.888111 -1.424740  0.943405
H           0.568368 -1.273697  2.077152
C           2.586326  0.430176  2.938699
H           2.199610  1.062895  0.908420
H           0.834004  1.273045  1.994639
C           3.175349  1.762620  3.414424
H           2.037442 -0.044086  3.764727
H           3.401423 -0.259938  2.678924
H           3.761278  2.242519  2.620901
H           3.835873  1.621499  4.277571
H           2.384344  2.462656  3.710782
H           1.237941 -1.649047 -2.563375
