39
NiPPh(n-Bu)2(minimum)
Ni          1.293963 -2.326134 -1.618217
P           0.229337 -0.835558 -0.716832
C          -0.430518  0.463304 -1.907971
H           0.327624  0.542593 -2.695822
H          -1.300335 -0.007596 -2.387103
C          -1.269519 -1.447701  0.223339
C          -2.296709 -0.456530  0.794899
C          -0.787936  1.867835 -1.395277
H          -0.871675 -2.090443  1.019578
H          -1.764710 -2.133219 -0.475353
C          -1.309916  2.779258 -2.517259
H           0.096552  2.328313 -0.938498
H          -1.541985  1.808781 -0.602112
C          -1.656206  4.189688 -2.027601
H          -2.026510  4.817000 -2.846538
H          -0.778103  4.686513 -1.597177
H          -2.432225  4.160966 -1.252650
H          -2.198193  2.321431 -2.975514
H          -0.555310  2.842002 -3.314146
C          -3.365512 -1.153894  1.651584
C          -4.418997 -0.184581  2.198226
H          -5.164005 -0.707649  2.808465
H          -3.958584  0.589444  2.824679
H          -4.951459  0.322409  1.384087
H          -1.797296  0.312719  1.397775
H          -2.793849  0.071606 -0.028787
H          -3.857412 -1.933720  1.053305
H          -2.876568 -1.674934  2.487030
C           1.221453  0.128867  0.511743
C           1.026279  0.047039  1.898543
H           0.228676 -0.566799  2.304837
C           1.857308  0.741526  2.781973
H           1.687815  0.661724  3.852766
C           2.896947  1.533235  2.295238
H           3.541877  2.074050  2.982526
C           3.108569  1.618562  0.916243
H           3.921654  2.225129  0.525689
C           2.285287  0.917585  0.036917
H           2.478736  0.972251 -1.031835
